<?xml version="1.0" encoding="ISO-8859-1"?>
<febio_spec version="3.0">
	<Module type="biphasic"/>
	<Globals>
		<Constants>
			<T>0</T>
			<R>0</R>
			<Fc>0</Fc>
		</Constants>
	</Globals>
	<Material>
		<material id="1" name="Talar Trochlea Bone" type="rigid body">
			<density>1</density>
			<center_of_mass>0,0,0</center_of_mass>
			<E>13000</E>
			<v>0.3</v>
		</material>
		<material id="2" name="Talar Trochlea Cartilage" type="biphasic">
			<phi0>0.2</phi0>
			<fluid_density>1</fluid_density>
			<tau>0</tau>
			<solid type="EFD neo-Hookean">
				<E>12</E>
				<v>0.42</v>
				<beta>3.5,3.5,3.5</beta>
				<ksi>4,4,4</ksi>
			</solid>
			<permeability type="perm-const-iso">
				<perm>0.000895</perm>
			</permeability>
		</material>
		<material id="3" name="Tibial Plafond Bone" type="rigid body">
			<density>1</density>
			<center_of_mass>0,0,0</center_of_mass>
			<E>13000</E>
			<v>0.3</v>
		</material>
		<material id="4" name="Tibial Plafond Cartilage" type="biphasic">
			<phi0>0.2</phi0>
			<fluid_density>1</fluid_density>
			<tau>0</tau>
			<solid type="EFD neo-Hookean">
				<E>12</E>
				<v>0.42</v>
				<beta>3.5,3.5,3.5</beta>
				<ksi>4,4,4</ksi>
			</solid>
			<permeability type="perm-const-iso">
				<perm>0.000895</perm>
			</permeability>
		</material>
	</Material>
	<Mesh>
		<Nodes name="Talar Trochlea Plafond">
			<node id="1">-3.53553391,4.99999985,-1.3397448e-07</node>
			<node id="2">0,4.99999985,-1.3397448e-07</node>
			<node id="3">3.53553391,4.99999985,-1.3397448e-07</node>
			<node id="4">-3.53553391,4.99999995,3.53553377</node>
			<node id="5">0,4.99999995,3.53553377</node>
			<node id="6">3.53553391,4.99999995,3.53553377</node>
			<node id="7">-3.53553391,-5.00000015,1.33974484e-07</node>
			<node id="8">0,-5.00000015,1.33974484e-07</node>
			<node id="9">3.53553391,-5.00000015,1.33974484e-07</node>
			<node id="10">-3.53553391,-5.00000005,3.53553404</node>
			<node id="11">0,-5.00000005,3.53553404</node>
			<node id="12">3.53553391,-5.00000005,3.53553404</node>
			<node id="13">10,4.99999985,-1.3397448e-07</node>
			<node id="14">7.07106781,5.00000004,7.07106768</node>
			<node id="15">0,5.00000012,9.99999987</node>
			<node id="16">-7.07106781,5.00000004,7.07106768</node>
			<node id="17">-10,4.99999985,-1.3397448e-07</node>
			<node id="18">10,-5.00000015,1.33974484e-07</node>
			<node id="19">7.07106781,-4.99999996,7.07106795</node>
			<node id="20">0,-4.99999988,10.0000001</node>
<!-- ... 2221 like lines cut -->
		</Nodes>
		<Nodes name="Tibial Plafond">
			<node id="2242">0,4.9999999,11.9992036</node>
			<node id="2243">0,-5.0000001,11.9992039</node>
			<node id="2244">0,5.00000004,16.9992036</node>
			<node id="2245">0,4.99999997,14.4992036</node>
			<node id="2246">0,3.7499999,11.9992036</node>
			<node id="2247">0,2.4999999,11.9992037</node>
			<node id="2248">0,1.2499999,11.9992037</node>
			<node id="2249">0,-9.78484458e-08,11.9992037</node>
			<node id="2250">0,-1.2500001,11.9992038</node>
			<node id="2251">0,-2.5000001,11.9992038</node>
			<node id="2252">0,-3.7500001,11.9992038</node>
			<node id="2253">0,-5.00000003,14.4992039</node>
			<node id="2254">0,-4.99999996,16.9992039</node>
			<node id="2255">3.12144515,4.99999989,11.6917681</node>
			<node id="2256">6.12293492,4.99999987,10.7812761</node>
			<node id="2257">8.88912373,4.99999983,9.3027174</node>
			<node id="2258">8.88912373,-5.00000017,9.30271767</node>
			<node id="2259">6.12293492,-5.00000013,10.7812764</node>
			<node id="2260">3.12144515,-5.00000011,11.6917684</node>
			<node id="2261">-8.88912373,4.99999983,9.3027174</node>
<!-- ... 673 like lines cut -->
		</Nodes>
		<Elements type="hex8" name="Talar Trochlea Bone">
			<elem id="1">1,32,307,84,33,198,640,282</elem>
			<elem id="2">32,31,308,307,198,197,641,640</elem>
			<elem id="3">31,30,309,308,197,196,642,641</elem>
			<elem id="4">30,2,56,309,196,23,238,642</elem>
			<elem id="5">84,307,304,83,282,640,643,281</elem>
			<elem id="6">307,308,305,304,640,641,644,643</elem>
			<elem id="7">308,309,306,305,641,642,645,644</elem>
			<elem id="8">309,56,57,306,642,238,239,645</elem>
			<elem id="9">83,304,301,82,281,643,646,280</elem>
			<elem id="10">304,305,302,301,643,644,647,646</elem>
			<elem id="11">305,306,303,302,644,645,648,647</elem>
			<elem id="12">306,57,58,303,645,239,240,648</elem>
			<elem id="13">82,301,71,4,280,646,261,72</elem>
			<elem id="14">301,302,70,71,646,647,260,261</elem>
			<elem id="15">302,303,69,70,647,648,259,260</elem>
			<elem id="16">303,58,5,69,648,240,59,259</elem>
			<elem id="17">33,198,640,282,34,201,649,285</elem>
			<elem id="18">198,197,641,640,201,200,650,649</elem>
			<elem id="19">197,196,642,641,200,199,651,650</elem>
			<elem id="20">196,23,238,642,199,24,241,651</elem>
<!-- ... 748 like lines cut -->
		</Elements>
		<Elements type="hex8" name="Talar Trochlea Cartilage">
			<elem id="769">13,120,400,107,1018,1035,1087,1028</elem>
			<elem id="770">120,121,401,400,1035,1036,1088,1087</elem>
			<elem id="771">121,122,402,401,1036,1037,1089,1088</elem>
			<elem id="772">122,14,123,402,1037,1019,1038,1089</elem>
			<elem id="773">107,400,403,108,1028,1087,1090,1029</elem>
			<elem id="774">400,401,404,403,1087,1088,1091,1090</elem>
			<elem id="775">401,402,405,404,1088,1089,1092,1091</elem>
			<elem id="776">402,123,124,405,1089,1038,1039,1092</elem>
			<elem id="777">108,403,406,109,1029,1090,1093,1030</elem>
			<elem id="778">403,404,407,406,1090,1091,1094,1093</elem>
			<elem id="779">404,405,408,407,1091,1092,1095,1094</elem>
			<elem id="780">405,124,125,408,1092,1039,1040,1095</elem>
			<elem id="781">109,406,409,110,1030,1093,1096,1031</elem>
			<elem id="782">406,407,410,409,1093,1094,1097,1096</elem>
			<elem id="783">407,408,411,410,1094,1095,1098,1097</elem>
			<elem id="784">408,125,126,411,1095,1040,1041,1098</elem>
			<elem id="785">110,409,412,111,1031,1096,1099,1032</elem>
			<elem id="786">409,410,413,412,1096,1097,1100,1099</elem>
			<elem id="787">410,411,414,413,1097,1098,1101,1100</elem>
			<elem id="788">411,126,127,414,1098,1041,1042,1101</elem>
<!-- ... 1004 like lines cut -->
		</Elements>
		<Elements type="hex8" name="Tibial Plafond Bone">
			<elem id="1793">2257,2306,2304,2256,2283,2347,2349,2282</elem>
			<elem id="1794">2306,2307,2305,2304,2347,2348,2350,2349</elem>
			<elem id="1795">2256,2304,2302,2255,2282,2349,2351,2281</elem>
			<elem id="1796">2304,2305,2303,2302,2349,2350,2352,2351</elem>
			<elem id="1797">2255,2302,2245,2242,2281,2351,2268,2246</elem>
			<elem id="1798">2302,2303,2244,2245,2351,2352,2267,2268</elem>
			<elem id="1799">2283,2347,2349,2282,2286,2353,2355,2285</elem>
			<elem id="1800">2347,2348,2350,2349,2353,2354,2356,2355</elem>
			<elem id="1801">2282,2349,2351,2281,2285,2355,2357,2284</elem>
			<elem id="1802">2349,2350,2352,2351,2355,2356,2358,2357</elem>
			<elem id="1803">2281,2351,2268,2246,2284,2357,2270,2247</elem>
			<elem id="1804">2351,2352,2267,2268,2357,2358,2269,2270</elem>
			<elem id="1805">2286,2353,2355,2285,2289,2359,2361,2288</elem>
			<elem id="1806">2353,2354,2356,2355,2359,2360,2362,2361</elem>
			<elem id="1807">2285,2355,2357,2284,2288,2361,2363,2287</elem>
			<elem id="1808">2355,2356,2358,2357,2361,2362,2364,2363</elem>
			<elem id="1809">2284,2357,2270,2247,2287,2363,2272,2248</elem>
			<elem id="1810">2357,2358,2269,2270,2363,2364,2271,2272</elem>
			<elem id="1811">2289,2359,2361,2288,2292,2365,2367,2291</elem>
			<elem id="1812">2359,2360,2362,2361,2365,2366,2368,2367</elem>
<!-- ... 76 like lines cut -->
		</Elements>
		<Elements type="hex8" name="Tibial Plafond Cartilage">
			<elem id="1889">2256,2257,2283,2282,2441,2442,2454,2453</elem>
			<elem id="1890">2255,2256,2282,2281,2440,2441,2453,2452</elem>
			<elem id="1891">2242,2255,2281,2246,2431,2440,2452,2433</elem>
			<elem id="1892">2282,2283,2286,2285,2453,2454,2457,2456</elem>
			<elem id="1893">2281,2282,2285,2284,2452,2453,2456,2455</elem>
			<elem id="1894">2246,2281,2284,2247,2433,2452,2455,2434</elem>
			<elem id="1895">2285,2286,2289,2288,2456,2457,2460,2459</elem>
			<elem id="1896">2284,2285,2288,2287,2455,2456,2459,2458</elem>
			<elem id="1897">2247,2284,2287,2248,2434,2455,2458,2435</elem>
			<elem id="1898">2288,2289,2292,2291,2459,2460,2463,2462</elem>
			<elem id="1899">2287,2288,2291,2290,2458,2459,2462,2461</elem>
			<elem id="1900">2248,2287,2290,2249,2435,2458,2461,2436</elem>
			<elem id="1901">2291,2292,2295,2294,2462,2463,2466,2465</elem>
			<elem id="1902">2290,2291,2294,2293,2461,2462,2465,2464</elem>
			<elem id="1903">2249,2290,2293,2250,2436,2461,2464,2437</elem>
			<elem id="1904">2294,2295,2298,2297,2465,2466,2469,2468</elem>
			<elem id="1905">2293,2294,2297,2296,2464,2465,2468,2467</elem>
			<elem id="1906">2250,2293,2296,2251,2437,2464,2467,2438</elem>
			<elem id="1907">2297,2298,2301,2300,2468,2469,2472,2471</elem>
			<elem id="1908">2296,2297,2300,2299,2467,2468,2471,2470</elem>
<!-- ... 364 like lines cut -->
		</Elements>
		<Surface name="Inter Talar Trochlea">
			<quad4 id="1">13,120,400,107</quad4>
			<quad4 id="2">120,121,401,400</quad4>
			<quad4 id="3">121,122,402,401</quad4>
			<quad4 id="4">122,14,123,402</quad4>
			<quad4 id="5">107,400,403,108</quad4>
			<quad4 id="6">400,401,404,403</quad4>
			<quad4 id="7">401,402,405,404</quad4>
			<quad4 id="8">402,123,124,405</quad4>
			<quad4 id="9">108,403,406,109</quad4>
			<quad4 id="10">403,404,407,406</quad4>
			<quad4 id="11">404,405,408,407</quad4>
			<quad4 id="12">405,124,125,408</quad4>
			<quad4 id="13">109,406,409,110</quad4>
			<quad4 id="14">406,407,410,409</quad4>
			<quad4 id="15">407,408,411,410</quad4>
			<quad4 id="16">408,125,126,411</quad4>
			<quad4 id="17">110,409,412,111</quad4>
			<quad4 id="18">409,410,413,412</quad4>
			<quad4 id="19">410,411,414,413</quad4>
			<quad4 id="20">411,126,127,414</quad4>
<!-- ... 108 like lines cut -->
		</Surface>
		<Surface name="Inter Tibial Plafond">
			<quad4 id="1">2256,2257,2283,2282</quad4>
			<quad4 id="2">2255,2256,2282,2281</quad4>
			<quad4 id="3">2242,2255,2281,2246</quad4>
			<quad4 id="4">2282,2283,2286,2285</quad4>
			<quad4 id="5">2281,2282,2285,2284</quad4>
			<quad4 id="6">2246,2281,2284,2247</quad4>
			<quad4 id="7">2285,2286,2289,2288</quad4>
			<quad4 id="8">2284,2285,2288,2287</quad4>
			<quad4 id="9">2247,2284,2287,2248</quad4>
			<quad4 id="10">2288,2289,2292,2291</quad4>
			<quad4 id="11">2287,2288,2291,2290</quad4>
			<quad4 id="12">2248,2287,2290,2249</quad4>
			<quad4 id="13">2291,2292,2295,2294</quad4>
			<quad4 id="14">2290,2291,2294,2293</quad4>
			<quad4 id="15">2249,2290,2293,2250</quad4>
			<quad4 id="16">2294,2295,2298,2297</quad4>
			<quad4 id="17">2293,2294,2297,2296</quad4>
			<quad4 id="18">2250,2293,2296,2251</quad4>
			<quad4 id="19">2297,2298,2301,2300</quad4>
			<quad4 id="20">2296,2297,2300,2299</quad4>
<!-- ... 28 like lines cut -->
		</Surface>
		<Surface name="Intra Articular_primary">
			<quad4 id="1">2089,2106,2158,2099</quad4>
			<quad4 id="2">2106,2107,2159,2158</quad4>
			<quad4 id="3">2107,2108,2160,2159</quad4>
			<quad4 id="4">2108,2090,2109,2160</quad4>
			<quad4 id="5">2099,2158,2161,2100</quad4>
			<quad4 id="6">2158,2159,2162,2161</quad4>
			<quad4 id="7">2159,2160,2163,2162</quad4>
			<quad4 id="8">2160,2109,2110,2163</quad4>
			<quad4 id="9">2100,2161,2164,2101</quad4>
			<quad4 id="10">2161,2162,2165,2164</quad4>
			<quad4 id="11">2162,2163,2166,2165</quad4>
			<quad4 id="12">2163,2110,2111,2166</quad4>
			<quad4 id="13">2101,2164,2167,2102</quad4>
			<quad4 id="14">2164,2165,2168,2167</quad4>
			<quad4 id="15">2165,2166,2169,2168</quad4>
			<quad4 id="16">2166,2111,2112,2169</quad4>
			<quad4 id="17">2102,2167,2170,2103</quad4>
			<quad4 id="18">2167,2168,2171,2170</quad4>
			<quad4 id="19">2168,2169,2172,2171</quad4>
			<quad4 id="20">2169,2112,2113,2172</quad4>
<!-- ... 108 like lines cut -->
		</Surface>
		<Surface name="Intra Articular_secondary">
			<quad4 id="1">2882,2883,2895,2894</quad4>
			<quad4 id="2">2881,2882,2894,2893</quad4>
			<quad4 id="3">2872,2881,2893,2874</quad4>
			<quad4 id="4">2894,2895,2898,2897</quad4>
			<quad4 id="5">2893,2894,2897,2896</quad4>
			<quad4 id="6">2874,2893,2896,2875</quad4>
			<quad4 id="7">2897,2898,2901,2900</quad4>
			<quad4 id="8">2896,2897,2900,2899</quad4>
			<quad4 id="9">2875,2896,2899,2876</quad4>
			<quad4 id="10">2900,2901,2904,2903</quad4>
			<quad4 id="11">2899,2900,2903,2902</quad4>
			<quad4 id="12">2876,2899,2902,2877</quad4>
			<quad4 id="13">2903,2904,2907,2906</quad4>
			<quad4 id="14">2902,2903,2906,2905</quad4>
			<quad4 id="15">2877,2902,2905,2878</quad4>
			<quad4 id="16">2906,2907,2910,2909</quad4>
			<quad4 id="17">2905,2906,2909,2908</quad4>
			<quad4 id="18">2878,2905,2908,2879</quad4>
			<quad4 id="19">2909,2910,2913,2912</quad4>
			<quad4 id="20">2908,2909,2912,2911</quad4>
<!-- ... 28 like lines cut -->
		</Surface>
		<SurfacePair name="Intra Articular">
			<primary>Intra Articular_primary</primary>
			<secondary>Intra Articular_secondary</secondary>
		</SurfacePair>
	</Mesh>
	<MeshDomains>
		<SolidDomain name="Talar Trochlea Bone" mat="Talar Trochlea Bone"/>
		<SolidDomain name="Talar Trochlea Cartilage" mat="Talar Trochlea Cartilage"/>
		<SolidDomain name="Tibial Plafond Bone" mat="Tibial Plafond Bone"/>
		<SolidDomain name="Tibial Plafond Cartilage" mat="Tibial Plafond Cartilage"/>
	</MeshDomains>
	<Boundary>
		<bc name="Inter Talar Trochlea" type="rigid" node_set="@surface:Inter Talar Trochlea">
			<rb>1</rb>
		</bc>
		<bc name="Inter Tibial Plafond" type="rigid" node_set="@surface:Inter Tibial Plafond">
			<rb>3</rb>
		</bc>
	</Boundary>
	<Rigid>
		<rigid_constraint name="Talus Fixed" type="fix">
			<rb>1</rb>
			<dofs>Rx,Ry,Rz,Ru,Rv,Rw</dofs>
		</rigid_constraint>
		<rigid_constraint name="Tibia Fixed" type="fix">
			<rb>3</rb>
			<dofs>Rx,Ry,Ru,Rv,Rw</dofs>
		</rigid_constraint>
	</Rigid>
	<Contact>
		<contact type="sliding-biphasic" name="Intra Articular" surface_pair="Intra Articular">
			<laugon>1</laugon>
			<tolerance>0.2</tolerance>
			<gaptol>0</gaptol>
			<ptol>0</ptol>
			<penalty>50</penalty>
			<two_pass>0</two_pass>
			<auto_penalty>0</auto_penalty>
			<pressure_penalty>0</pressure_penalty>
			<symmetric_stiffness>0</symmetric_stiffness>
			<search_radius>1</search_radius>
			<seg_up>0</seg_up>
			<minaug>0</minaug>
			<maxaug>10</maxaug>
			<search_tol>0.01</search_tol>
			<update_penalty>0</update_penalty>
			<smooth_aug>0</smooth_aug>
			<fric_coeff>0.01</fric_coeff>
			<contact_frac>0</contact_frac>
			<smooth_fls>0</smooth_fls>
			<knmult>1</knmult>
			<node_reloc>0</node_reloc>
			<flip_primary>0</flip_primary>
			<flip_secondary>0</flip_secondary>
			<shell_bottom_primary>0</shell_bottom_primary>
			<shell_bottom_secondary>0</shell_bottom_secondary>
		</contact>
	</Contact>
	<Step>
		<step id="1" name="Step2">
			<Control>
				<analysis>TRANSIENT</analysis>
				<time_steps>700</time_steps>
				<step_size>0.01</step_size>
				<solver>
					<max_refs>45</max_refs>
					<max_ups>10</max_ups>
					<diverge_reform>1</diverge_reform>
					<reform_each_time_step>1</reform_each_time_step>
					<dtol>0.001</dtol>
					<etol>0.01</etol>
					<rtol>0</rtol>
					<ptol>0.01</ptol>
					<lstol>0.9</lstol>
					<min_residual>1e-20</min_residual>
					<qnmethod>BFGS</qnmethod>
					<mixed_formulation>default</mixed_formulation>
				</solver>
				<time_stepper>
					<dtmin>0.005</dtmin>
					<dtmax>0.01</dtmax>
					<max_retries>5</max_retries>
					<opt_iter>10</opt_iter>
				</time_stepper>
			</Control>
			<Rigid>
				<rigid_constraint name="Tibia Force Ctrl Compression" type="force">
					<rb>3</rb>
					<dof>Rz</dof>
					<value lc="1">-166.81</value>
					<load_type>1</load_type>
				</rigid_constraint>
				<rigid_constraint name="Tibia Rotation Ctrl Dorsi/Plantarflexion" type="prescribe">
					<rb>3</rb>
					<dof>Rv</dof>
					<value lc="2">0.1</value>
					<relative>0</relative>
				</rigid_constraint>
			</Rigid>
			<Constraints>
			</Constraints>
		</step>
	</Step>
	<LoadData>
		<load_controller id="1" type="loadcurve">
			<interpolate>LINEAR</interpolate>
			<points>
				<point>0,0</point>
				<point>1,1</point>
				<point>1.02168608782,1.13758278006</point>
				<point>1.10784566407,1.47109643606</point>
				<point>1.29452474596,1.7637716852</point>
				<point>1.49556375723,2.05644693435</point>
				<point>1.63916305098,2.36954138692</point>
				<point>1.78276234474,2.70986144406</point>
				<point>1.91200170913,3.02295589663</point>
				<point>2.06278096758,3.34966315149</point>
				<point>2.23510012009,3.64233840063</point>
				<point>2.47921891948,3.88736884177</point>
				<point>2.79513736575,3.87375603949</point>
				<point>3.08233595327,3.75124081891</point>
				<point>3.36953454079,3.58788719149</point>
				<point>3.67109305768,3.4789847732</point>
				<point>3.97983153927,3.47217837206</point>
				<point>4.28857002085,3.51301677891</point>
				<point>4.56140867899,3.58788719149</point>
				<point>4.88450708995,3.71040241206</point>
<!-- ... 12 like lines cut -->
			</points>
		</load_controller>
		<load_controller id="2" type="loadcurve">
			<interpolate>LINEAR</interpolate>
			<points>
				<point>1,0</point>
				<point>1.26977771158,-0.423168577635</point>
				<point>1.4482320038,-0.859105531988</point>
				<point>1.5950460292,-1.19319434954</point>
				<point>1.75081995447,-1.45095434061</point>
				<point>2,-1.54229</point>
				<point>2.14577606805,-1.41893041031</point>
				<point>2.5064140485,-0.839341300172</point>
				<point>2.66995754283,-0.55329901177</point>
				<point>2.77977556881,-0.390635969101</point>
				<point>2.88959359479,-0.253999013259</point>
				<point>3.03372975389,-0.0848294488838</point>
				<point>3.17786591299,0.0518075069581</point>
				<point>3.43182009806,0.260016201574</point>
				<point>4.01522836109,0.637394460566</point>
				<point>4.58490937086,0.975733589317</point>
				<point>5.16145400725,1.28804663124</point>
				<point>5.40168093909,1.47673576074</point>
				<point>5.71740776378,1.67843793365</point>
				<point>5.86266912553,1.74940907713</point>
<!-- ... 8 like lines cut -->
			</points>
		</load_controller>
	</LoadData>
	<Output>
		<plotfile type="febio">
			<var type="contact area"/>
			<var type="contact force"/>
			<var type="contact gap"/>
			<var type="contact pressure"/>
			<var type="contact traction"/>
			<var type="displacement"/>
			<var type="infinitesimal strain"/>
			<var type="reaction forces"/>
			<var type="relative volume"/>
			<var type="rigid angular position"/>
			<var type="rigid force"/>
			<var type="rigid position"/>
			<var type="rigid rotation vector"/>
			<var type="Euler angle"/>
			<var type="stress"/>
			<var type="PK1 stress"/>
			<var type="PK2 stress"/>
			<var type="effective fluid pressure"/>
			<var type="effective friction coefficient"/>
			<var type="fluid pressure"/>
			<var type="fluid flux"/>
			<var type="fluid force"/>
			<var type="fluid load support"/>
			<var type="permeability"/>
			<var type="porosity"/>
			<var type="solid stress"/>
		</plotfile>
	</Output>
</febio_spec>
