<?xml version="1.0" encoding="ISO-8859-1"?>
<febio_spec version="3.0">
	<Module type="biphasic"/>
	<Globals>
		<Constants>
			<T>0</T>
			<R>0</R>
			<Fc>0</Fc>
		</Constants>
	</Globals>
	<Material>
		<material id="1" name="Talar Trochlea Bone" type="rigid body">
			<density>1</density>
			<center_of_mass>0,0,0</center_of_mass>
			<E>13000</E>
			<v>0.3</v>
		</material>
		<material id="2" name="Talar Trochlea Cartilage" type="biphasic">
			<phi0>0.2</phi0>
			<fluid_density>1</fluid_density>
			<tau>0</tau>
			<solid type="EFD neo-Hookean">
				<E>12</E>
				<v>0.42</v>
				<beta>3.5,3.5,3.5</beta>
				<ksi>4,4,4</ksi>
			</solid>
			<permeability type="perm-const-iso">
				<perm>0.01</perm>
			</permeability>
		</material>
		<material id="3" name="Tibial Plafond Bone" type="rigid body">
			<density>1</density>
			<center_of_mass>0,0,0</center_of_mass>
			<E>13000</E>
			<v>0.3</v>
		</material>
		<material id="4" name="Tibial Plafond Cartilage" type="biphasic">
			<phi0>0.2</phi0>
			<fluid_density>1</fluid_density>
			<tau>0</tau>
			<solid type="EFD neo-Hookean">
				<E>12</E>
				<v>0.42</v>
				<beta>3.3,3.5,3.5</beta>
				<ksi>4,4,4</ksi>
			</solid>
			<permeability type="perm-const-iso">
				<perm>0.01</perm>
			</permeability>
		</material>
	</Material>
	<Mesh>
		<Nodes name="Talar Trochlea Plafond">
			<node id="1">0,2.49999985,-6.69872393e-08</node>
			<node id="2">0,1.24999985,-3.34936188e-08</node>
			<node id="3">0,-1.47371932e-07,1.77635684e-15</node>
			<node id="4">0,-1.25000015,3.34936221e-08</node>
			<node id="5">0,-2.50000015,6.69872429e-08</node>
			<node id="6">-3.53553391,2.49999985,-6.69872393e-08</node>
			<node id="7">-3.53553391,1.24999985,-3.34936188e-08</node>
			<node id="8">-3.53553391,-1.47371932e-07,1.77635684e-15</node>
			<node id="9">-3.53553391,-1.25000015,3.34936221e-08</node>
			<node id="10">-3.53553391,-2.50000015,6.69872429e-08</node>
			<node id="11">3.53553391,2.49999985,-6.69872393e-08</node>
			<node id="12">3.53553391,1.24999985,-3.34936188e-08</node>
			<node id="13">3.53553391,-1.47371932e-07,1.77635684e-15</node>
			<node id="14">3.53553391,-1.25000015,3.34936221e-08</node>
			<node id="15">3.53553391,-2.50000015,6.69872429e-08</node>
			<node id="16">0,2.49999995,3.53553384</node>
			<node id="17">0,1.24999995,3.53553387</node>
			<node id="18">0,-5.26376667e-08,3.53553391</node>
			<node id="19">0,-1.25000005,3.53553394</node>
			<node id="20">0,-2.50000005,3.53553397</node>
<!-- ... 10375 like lines cut -->
		</Nodes>
		<Nodes name="Tibial Plafond">
			<node id="10396">0,2.49999997,11.9909126</node>
			<node id="10397">0,1.24999997,11.9909127</node>
			<node id="10398">0,-2.84133739e-08,11.9909127</node>
			<node id="10399">0,-1.25000003,11.9909127</node>
			<node id="10400">0,-2.50000003,11.9909128</node>
			<node id="10401">0,2.50000011,16.9909126</node>
			<node id="10402">0,2.50000004,14.4909126</node>
			<node id="10403">0,1.25000011,16.9909127</node>
			<node id="10404">0,1.25000004,14.4909127</node>
			<node id="10405">0,1.05561108e-07,16.9909127</node>
			<node id="10406">0,3.85738668e-08,14.4909127</node>
			<node id="10407">0,-1.24999989,16.9909127</node>
			<node id="10408">0,-1.24999996,14.4909127</node>
			<node id="10409">0,-2.49999989,16.9909128</node>
			<node id="10410">0,-2.49999996,14.4909128</node>
			<node id="10411">2.34108386,2.49999997,11.760336</node>
			<node id="10412">4.59220119,2.49999995,11.077467</node>
			<node id="10413">6.6668428,2.49999992,9.96854798</node>
			<node id="10414">8.48528137,2.49999988,8.47619401</node>
			<node id="10415">2.34108386,1.24999997,11.760336</node>
<!-- ... 3907 like lines cut -->
		</Nodes>
		<Elements type="hex8" name="Talar Trochlea Bone">
			<elem id="1">1267,5100,9052,6462,6,1269,5129,1270</elem>
			<elem id="2">5100,1499,5102,9052,1269,58,1507,5129</elem>
			<elem id="3">6462,9052,5107,1701,1270,5129,1711,118</elem>
			<elem id="4">9052,5102,2365,5107,5129,1507,296,1711</elem>
			<elem id="5">1499,5101,9053,5102,58,1503,5132,1507</elem>
			<elem id="6">5101,1498,5104,9053,1503,57,1505,5132</elem>
			<elem id="7">5102,9053,5108,2365,1507,5132,2374,296</elem>
			<elem id="8">9053,5104,2366,5108,5132,1505,297,2374</elem>
			<elem id="9">1498,5103,9054,5104,57,1500,5135,1505</elem>
			<elem id="10">5103,1497,5106,9054,1500,56,1502,5135</elem>
			<elem id="11">5104,9054,5110,2366,1505,5135,2377,297</elem>
			<elem id="12">9054,5106,2367,5110,5135,1502,298,2377</elem>
			<elem id="13">1497,5105,9055,5106,56,1248,5138,1502</elem>
			<elem id="14">5105,1246,5349,9055,1248,1,1250,5138</elem>
			<elem id="15">5106,9055,5112,2367,1502,5138,1588,298</elem>
			<elem id="16">9055,5349,1583,5112,5138,1250,86,1588</elem>
			<elem id="17">1701,5107,9056,6453,118,1711,5140,1706</elem>
			<elem id="18">5107,2365,5109,9056,1711,296,2375,5140</elem>
			<elem id="19">6453,9056,5114,1700,1706,5140,1708,117</elem>
			<elem id="20">9056,5109,2368,5114,5140,2375,299,1708</elem>
<!-- ... 3820 like lines cut -->
		</Elements>
		<Elements type="hex8" name="Talar Trochlea Cartilage">
			<elem id="3841">1377,6733,1380,31,6732,9628,6740,1381</elem>
			<elem id="3842">6733,1916,176,1380,9628,6734,1922,6740</elem>
			<elem id="3843">6732,9628,6740,1381,3049,7011,3051,566</elem>
			<elem id="3844">9628,6734,1922,6740,7011,3144,591,3051</elem>
			<elem id="3845">1916,6735,1919,176,6734,9629,6743,1922</elem>
			<elem id="3846">6735,1917,177,1919,9629,6736,1926,6743</elem>
			<elem id="3847">6734,9629,6743,1922,3144,7013,3147,591</elem>
			<elem id="3848">9629,6736,1926,6743,7013,3145,592,3147</elem>
			<elem id="3849">1917,6737,1923,177,6736,9630,6746,1926</elem>
			<elem id="3850">6737,1918,178,1923,9630,6738,1929,6746</elem>
			<elem id="3851">6736,9630,6746,1926,3145,7015,3150,592</elem>
			<elem id="3852">9630,6738,1929,6746,7015,3146,593,3150</elem>
			<elem id="3853">1918,6739,1400,178,6738,9631,6749,1929</elem>
			<elem id="3854">6739,1398,36,1400,9631,6800,1403,6749</elem>
			<elem id="3855">6738,9631,6749,1929,3146,7017,3067,593</elem>
			<elem id="3856">9631,6800,1403,6749,7017,3065,571,3067</elem>
			<elem id="3857">31,1380,6742,1378,1381,6740,9632,6741</elem>
			<elem id="3858">1380,176,1920,6742,6740,1922,6744,9632</elem>
			<elem id="3859">1378,6742,1384,32,6741,9632,6752,1385</elem>
			<elem id="3860">6742,1920,179,1384,9632,6744,1933,6752</elem>
<!-- ... 5100 like lines cut -->
		</Elements>
		<Elements type="hex8" name="Tibial Plafond Bone">
			<elem id="8961">10957,12375,13843,12660,10414,10971,12392,10966</elem>
			<elem id="8962">12375,11112,12378,13843,10971,10451,11121,12392</elem>
			<elem id="8963">12660,13843,12379,10956,10966,12392,10968,10413</elem>
			<elem id="8964">13843,12378,11114,12379,12392,11121,10453,10968</elem>
			<elem id="8965">11112,12376,13844,12378,10451,11120,12396,11121</elem>
			<elem id="8966">12376,11113,12377,13844,11120,10452,11123,12396</elem>
			<elem id="8967">12378,13844,12380,11114,11121,12396,11125,10453</elem>
			<elem id="8968">13844,12377,11115,12380,12396,11123,10454,11125</elem>
			<elem id="8969">10956,12379,13845,12662,10413,10968,12398,10962</elem>
			<elem id="8970">12379,11114,12382,13845,10968,10453,11126,12398</elem>
			<elem id="8971">12662,13845,12383,10955,10962,12398,10964,10412</elem>
			<elem id="8972">13845,12382,11116,12383,12398,11126,10455,10964</elem>
			<elem id="8973">11114,12380,13846,12382,10453,11125,12402,11126</elem>
			<elem id="8974">12380,11115,12381,13846,11125,10454,11128,12402</elem>
			<elem id="8975">12382,13846,12384,11116,11126,12402,11130,10455</elem>
			<elem id="8976">13846,12381,11117,12384,12402,11128,10456,11130</elem>
			<elem id="8977">10955,12383,13847,12664,10412,10964,12404,10958</elem>
			<elem id="8978">12383,11116,12386,13847,10964,10455,11131,12404</elem>
			<elem id="8979">12664,13847,12387,10954,10958,12404,10960,10411</elem>
			<elem id="8980">13847,12386,11118,12387,12404,11131,10457,10960</elem>
<!-- ... 620 like lines cut -->
		</Elements>
		<Elements type="hex8" name="Tibial Plafond Cartilage">
			<elem id="9601">10956,12660,10966,10413,12661,13939,12667,10969</elem>
			<elem id="9602">12660,10957,10414,10966,13939,12659,10972,12667</elem>
			<elem id="9603">12661,13939,12667,10969,11331,12802,11339,10538</elem>
			<elem id="9604">13939,12659,10972,12667,12802,11332,10539,11339</elem>
			<elem id="9605">10955,12662,10962,10412,12663,13940,12670,10965</elem>
			<elem id="9606">12662,10956,10413,10962,13940,12661,10969,12670</elem>
			<elem id="9607">12663,13940,12670,10965,11330,12804,11336,10537</elem>
			<elem id="9608">13940,12661,10969,12670,12804,11331,10538,11336</elem>
			<elem id="9609">10954,12664,10958,10411,12665,13941,12673,10961</elem>
			<elem id="9610">12664,10955,10412,10958,13941,12663,10965,12673</elem>
			<elem id="9611">12665,13941,12673,10961,11329,12806,11333,10536</elem>
			<elem id="9612">13941,12663,10965,12673,12806,11330,10537,11333</elem>
			<elem id="9613">10891,12666,10894,10396,12727,13942,12676,10896</elem>
			<elem id="9614">12666,10954,10411,10894,13942,12665,10961,12676</elem>
			<elem id="9615">12727,13942,12676,10896,11308,12808,11310,10531</elem>
			<elem id="9616">13942,12665,10961,12676,12808,11329,10536,11310</elem>
			<elem id="9617">10413,10966,12669,10967,10969,12667,13943,12671</elem>
			<elem id="9618">10966,10414,10970,12669,12667,10972,12668,13943</elem>
			<elem id="9619">10967,12669,10981,10417,12671,13943,12679,10984</elem>
			<elem id="9620">12669,10970,10418,10981,13943,12668,10987,12679</elem>
<!-- ... 2540 like lines cut -->
		</Elements>
		<Surface name="Inter Talar Trochlea">
			<quad4 id="1">1377,6733,1380,31</quad4>
			<quad4 id="2">6733,1916,176,1380</quad4>
			<quad4 id="3">1916,6735,1919,176</quad4>
			<quad4 id="4">6735,1917,177,1919</quad4>
			<quad4 id="5">1917,6737,1923,177</quad4>
			<quad4 id="6">6737,1918,178,1923</quad4>
			<quad4 id="7">1918,6739,1400,178</quad4>
			<quad4 id="8">6739,1398,36,1400</quad4>
			<quad4 id="9">31,1380,6742,1378</quad4>
			<quad4 id="10">1380,176,1920,6742</quad4>
			<quad4 id="11">1378,6742,1384,32</quad4>
			<quad4 id="12">6742,1920,179,1384</quad4>
			<quad4 id="13">176,1919,6745,1920</quad4>
			<quad4 id="14">1919,177,1924,6745</quad4>
			<quad4 id="15">1920,6745,1930,179</quad4>
			<quad4 id="16">6745,1924,180,1930</quad4>
			<quad4 id="17">177,1923,6748,1924</quad4>
			<quad4 id="18">1923,178,1927,6748</quad4>
			<quad4 id="19">1924,6748,1934,180</quad4>
			<quad4 id="20">6748,1927,181,1934</quad4>
<!-- ... 300 like lines cut -->
		</Surface>
		<Surface name="Inter Tibial Plafond">
			<quad4 id="1">12660,10957,10414,10966</quad4>
			<quad4 id="2">10956,12660,10966,10413</quad4>
			<quad4 id="3">12662,10956,10413,10962</quad4>
			<quad4 id="4">10955,12662,10962,10412</quad4>
			<quad4 id="5">12664,10955,10412,10958</quad4>
			<quad4 id="6">10954,12664,10958,10411</quad4>
			<quad4 id="7">12666,10954,10411,10894</quad4>
			<quad4 id="8">10891,12666,10894,10396</quad4>
			<quad4 id="9">10966,10414,10970,12669</quad4>
			<quad4 id="10">10413,10966,12669,10967</quad4>
			<quad4 id="11">12669,10970,10418,10981</quad4>
			<quad4 id="12">10967,12669,10981,10417</quad4>
			<quad4 id="13">10962,10413,10967,12672</quad4>
			<quad4 id="14">10412,10962,12672,10963</quad4>
			<quad4 id="15">12672,10967,10417,10977</quad4>
			<quad4 id="16">10963,12672,10977,10416</quad4>
			<quad4 id="17">10958,10412,10963,12675</quad4>
			<quad4 id="18">10411,10958,12675,10959</quad4>
			<quad4 id="19">12675,10963,10416,10973</quad4>
			<quad4 id="20">10959,12675,10973,10415</quad4>
<!-- ... 140 like lines cut -->
		</Surface>
		<Surface name="Intra Articular_primary">
			<quad4 id="1">4918,8680,4920,1161</quad4>
			<quad4 id="2">8680,4988,1186,4920</quad4>
			<quad4 id="3">4988,8683,4991,1186</quad4>
			<quad4 id="4">8683,4989,1187,4991</quad4>
			<quad4 id="5">4989,8686,4993,1187</quad4>
			<quad4 id="6">8686,4990,1188,4993</quad4>
			<quad4 id="7">4990,8689,4931,1188</quad4>
			<quad4 id="8">8689,4929,1166,4931</quad4>
			<quad4 id="9">1161,4920,8693,4919</quad4>
			<quad4 id="10">4920,1186,4992,8693</quad4>
			<quad4 id="11">4919,8693,4922,1162</quad4>
			<quad4 id="12">8693,4992,1189,4922</quad4>
			<quad4 id="13">1186,4991,8697,4992</quad4>
			<quad4 id="14">4991,1187,4994,8697</quad4>
			<quad4 id="15">4992,8697,4996,1189</quad4>
			<quad4 id="16">8697,4994,1190,4996</quad4>
			<quad4 id="17">1187,4993,8701,4994</quad4>
			<quad4 id="18">4993,1188,4995,8701</quad4>
			<quad4 id="19">4994,8701,4998,1190</quad4>
			<quad4 id="20">8701,4995,1191,4998</quad4>
<!-- ... 300 like lines cut -->
		</Surface>
		<Surface name="Intra Articular_secondary">
			<quad4 id="1">12299,13655,12305,10853</quad4>
			<quad4 id="2">13655,12300,10854,12305</quad4>
			<quad4 id="3">12298,13658,12303,10852</quad4>
			<quad4 id="4">13658,12299,10853,12303</quad4>
			<quad4 id="5">12297,13661,12301,10851</quad4>
			<quad4 id="6">13661,12298,10852,12301</quad4>
			<quad4 id="7">12281,13664,12283,10846</quad4>
			<quad4 id="8">13664,12297,10851,12283</quad4>
			<quad4 id="9">10853,12305,13668,12306</quad4>
			<quad4 id="10">12305,10854,12307,13668</quad4>
			<quad4 id="11">12306,13668,12312,10857</quad4>
			<quad4 id="12">13668,12307,10858,12312</quad4>
			<quad4 id="13">10852,12303,13672,12304</quad4>
			<quad4 id="14">12303,10853,12306,13672</quad4>
			<quad4 id="15">12304,13672,12310,10856</quad4>
			<quad4 id="16">13672,12306,10857,12310</quad4>
			<quad4 id="17">10851,12301,13676,12302</quad4>
			<quad4 id="18">12301,10852,12304,13676</quad4>
			<quad4 id="19">12302,13676,12308,10855</quad4>
			<quad4 id="20">13676,12304,10856,12308</quad4>
<!-- ... 140 like lines cut -->
		</Surface>
		<SurfacePair name="Intra Articular">
			<primary>Intra Articular_primary</primary>
			<secondary>Intra Articular_secondary</secondary>
		</SurfacePair>
	</Mesh>
	<MeshDomains>
		<SolidDomain name="Talar Trochlea Bone" mat="Talar Trochlea Bone"/>
		<SolidDomain name="Talar Trochlea Cartilage" mat="Talar Trochlea Cartilage"/>
		<SolidDomain name="Tibial Plafond Bone" mat="Tibial Plafond Bone"/>
		<SolidDomain name="Tibial Plafond Cartilage" mat="Tibial Plafond Cartilage"/>
	</MeshDomains>
	<Boundary>
		<bc name="Inter Talar Trochlea" type="rigid" node_set="@surface:Inter Talar Trochlea">
			<rb>1</rb>
		</bc>
		<bc name="Inter Tibial Plafond" type="rigid" node_set="@surface:Inter Tibial Plafond">
			<rb>3</rb>
		</bc>
	</Boundary>
	<Rigid>
		<rigid_constraint name="Talus Fixed" type="fix">
			<rb>1</rb>
			<dofs>Rx,Ry,Rz,Ru,Rv,Rw</dofs>
		</rigid_constraint>
		<rigid_constraint name="Tibia Fixed" type="fix">
			<rb>3</rb>
			<dofs>Rx,Ry,Ru,Rv,Rw</dofs>
		</rigid_constraint>
	</Rigid>
	<Contact>
		<contact type="sliding-biphasic" name="Intra Articular" surface_pair="Intra Articular">
			<laugon>1</laugon>
			<tolerance>0.2</tolerance>
			<gaptol>0</gaptol>
			<ptol>0</ptol>
			<penalty>150</penalty>
			<two_pass>0</two_pass>
			<auto_penalty>0</auto_penalty>
			<pressure_penalty>0</pressure_penalty>
			<symmetric_stiffness>0</symmetric_stiffness>
			<search_radius>1</search_radius>
			<seg_up>0</seg_up>
			<minaug>0</minaug>
			<maxaug>10</maxaug>
			<search_tol>0.01</search_tol>
			<update_penalty>0</update_penalty>
			<smooth_aug>0</smooth_aug>
			<fric_coeff>0.01</fric_coeff>
			<contact_frac>0</contact_frac>
			<smooth_fls>0</smooth_fls>
			<knmult>1</knmult>
			<node_reloc>0</node_reloc>
			<flip_primary>0</flip_primary>
			<flip_secondary>0</flip_secondary>
			<shell_bottom_primary>0</shell_bottom_primary>
			<shell_bottom_secondary>0</shell_bottom_secondary>
		</contact>
	</Contact>
	<Step>
		<step id="1" name="Step1">
			<Control>
				<analysis>TRANSIENT</analysis>
				<time_steps>700</time_steps>
				<step_size>0.01</step_size>
				<solver>
					<max_refs>15</max_refs>
					<max_ups>10</max_ups>
					<diverge_reform>1</diverge_reform>
					<reform_each_time_step>1</reform_each_time_step>
					<dtol>0.001</dtol>
					<etol>0.01</etol>
					<rtol>0</rtol>
					<ptol>0.01</ptol>
					<lstol>0.9</lstol>
					<min_residual>1e-20</min_residual>
					<qnmethod>BFGS</qnmethod>
					<mixed_formulation>default</mixed_formulation>
				</solver>
				<time_stepper>
					<dtmin>0.005</dtmin>
					<dtmax>0.01</dtmax>
					<max_retries>5</max_retries>
					<opt_iter>10</opt_iter>
				</time_stepper>
			</Control>
			<Rigid>
				<rigid_constraint name="Tibia Force Ctrl Compression" type="force">
					<rb>3</rb>
					<dof>Rz</dof>
					<value lc="1">-333.62</value>
					<load_type>1</load_type>
				</rigid_constraint>
				<rigid_constraint name="Tibia Rotation Ctrl Dorsi/Plantarflexion" type="prescribe">
					<rb>3</rb>
					<dof>Rv</dof>
					<value lc="2">0.1</value>
					<relative>0</relative>
				</rigid_constraint>
			</Rigid>
			<Constraints>
			</Constraints>
		</step>
	</Step>
	<LoadData>
		<load_controller id="1" type="loadcurve">
			<interpolate>LINEAR</interpolate>
			<points>
				<point>0,0</point>
				<point>1,1</point>
			</points>
		</load_controller>
		<load_controller id="2" type="loadcurve">
			<interpolate>LINEAR</interpolate>
			<points>
				<point>1,0</point>
				<point>2,-2</point>
				<point>3,0</point>
				<point>5,3.5</point>
				<point>7,0</point>
			</points>
		</load_controller>
	</LoadData>
	<Output>
		<plotfile type="febio">
			<var type="contact gap"/>
			<var type="displacement"/>
			<var type="relative volume"/>
			<var type="stress"/>
			<var type="effective fluid pressure"/>
			<var type="fluid flux"/>
			<var type="solid stress"/>
		</plotfile>
	</Output>
</febio_spec>
