<?xml version="1.0" encoding="ISO-8859-1"?>
<febio_spec version="3.0">
	<Module type="biphasic"/>
	<Globals>
		<Constants>
			<T>0</T>
			<R>0</R>
			<Fc>0</Fc>
		</Constants>
	</Globals>
	<Material>
		<material id="1" name="Talar Trochlea Bone" type="rigid body">
			<density>1</density>
			<center_of_mass>0,0,0</center_of_mass>
			<E>13000</E>
			<v>0.3</v>
		</material>
		<material id="2" name="Talar Trochlea Cartilage" type="biphasic">
			<phi0>0.2</phi0>
			<fluid_density>1</fluid_density>
			<tau>0</tau>
			<solid type="EFD neo-Hookean">
				<E>12</E>
				<v>0.42</v>
				<beta>3.5,3.5,3.5</beta>
				<ksi>4,4,4</ksi>
			</solid>
			<permeability type="perm-const-iso">
				<perm>0.000895</perm>
			</permeability>
		</material>
		<material id="3" name="Tibial Plafond Bone" type="rigid body">
			<density>1</density>
			<center_of_mass>0,0,0</center_of_mass>
			<E>13000</E>
			<v>0.3</v>
		</material>
		<material id="4" name="Tibial Plafond Cartilage" type="biphasic">
			<phi0>0.2</phi0>
			<fluid_density>1</fluid_density>
			<tau>0</tau>
			<solid type="EFD neo-Hookean">
				<E>12</E>
				<v>0.42</v>
				<beta>3.5,3.5,3.5</beta>
				<ksi>4,4,4</ksi>
			</solid>
			<permeability type="perm-const-iso">
				<perm>0.000895</perm>
			</permeability>
		</material>
	</Material>
	<Mesh>
		<Nodes name="Talar Trochlea Plafond">
			<node id="1">-3.53553391,4.99999985,-1.3397448e-07</node>
			<node id="2">0,4.99999985,-1.3397448e-07</node>
			<node id="3">3.53553391,4.99999985,-1.3397448e-07</node>
			<node id="4">-3.53553391,4.99999995,3.53553377</node>
			<node id="5">0,4.99999995,3.53553377</node>
			<node id="6">3.53553391,4.99999995,3.53553377</node>
			<node id="7">-3.53553391,-5.00000015,1.33974484e-07</node>
			<node id="8">0,-5.00000015,1.33974484e-07</node>
			<node id="9">3.53553391,-5.00000015,1.33974484e-07</node>
			<node id="10">-3.53553391,-5.00000005,3.53553404</node>
			<node id="11">0,-5.00000005,3.53553404</node>
			<node id="12">3.53553391,-5.00000005,3.53553404</node>
			<node id="13">10,4.99999985,-1.3397448e-07</node>
			<node id="14">7.07106781,5.00000004,7.07106768</node>
			<node id="15">0,5.00000012,9.99999987</node>
			<node id="16">-7.07106781,5.00000004,7.07106768</node>
			<node id="17">-10,4.99999985,-1.3397448e-07</node>
			<node id="18">10,-5.00000015,1.33974484e-07</node>
			<node id="19">7.07106781,-4.99999996,7.07106795</node>
			<node id="20">0,-4.99999988,10.0000001</node>
<!-- ... 8461 like lines cut -->
		</Nodes>
		<Nodes name="Tibial Plafond">
			<node id="8482">0,4.99999997,11.9909126</node>
			<node id="8483">0,-5.00000003,11.9909128</node>
			<node id="8484">0,5.00000011,16.9909126</node>
			<node id="8485">0,5.00000004,14.4909126</node>
			<node id="8486">0,3.74999997,11.9909126</node>
			<node id="8487">0,2.49999997,11.9909126</node>
			<node id="8488">0,1.24999997,11.9909127</node>
			<node id="8489">0,-2.84133739e-08,11.9909127</node>
			<node id="8490">0,-1.25000003,11.9909127</node>
			<node id="8491">0,-2.50000003,11.9909128</node>
			<node id="8492">0,-3.75000003,11.9909128</node>
			<node id="8493">0,-4.99999996,14.4909128</node>
			<node id="8494">0,-4.99999989,16.9909128</node>
			<node id="8495">2.34108386,4.99999997,11.7603359</node>
			<node id="8496">4.59220119,4.99999995,11.077467</node>
			<node id="8497">6.6668428,4.99999992,9.96854792</node>
			<node id="8498">8.48528137,4.99999988,8.47619394</node>
			<node id="8499">8.48528137,-5.00000012,8.47619421</node>
			<node id="8500">6.6668428,-5.00000008,9.96854819</node>
			<node id="8501">4.59220119,-5.00000005,11.0774672</node>
<!-- ... 3265 like lines cut -->
		</Nodes>
		<Elements type="hex20" name="Talar Trochlea Bone">
			<elem id="1">1,32,307,84,33,198,640,282,2242,2371,2564,2243,2373,2997,3253,2374,2244,2372,3335,2565</elem>
			<elem id="2">32,31,308,307,198,197,641,640,2368,2369,3336,2371,2994,2995,4343,2997,2372,2370,3337,3335</elem>
			<elem id="3">31,30,309,308,197,196,642,641,2365,2366,3338,2369,2991,2992,4346,2995,2370,2367,3339,3337</elem>
			<elem id="4">30,2,56,309,196,23,238,642,2246,2247,2451,2366,2338,2339,3097,2992,2367,2248,2452,3339</elem>
			<elem id="5">84,307,304,83,282,640,643,281,2564,3327,2560,2561,3253,4344,3249,3250,2565,3335,3328,2562</elem>
			<elem id="6">307,308,305,304,640,641,644,643,3336,3330,3329,3327,4343,4347,4351,4344,3335,3337,3331,3328</elem>
			<elem id="7">308,309,306,305,641,642,645,644,3338,3333,3332,3330,4346,4349,4354,4347,3337,3339,3334,3331</elem>
			<elem id="8">309,56,57,306,642,238,239,645,2451,2453,2455,3333,3097,3098,3101,4349,3339,2452,2456,3334</elem>
			<elem id="9">83,304,301,82,281,643,646,280,2560,3319,2556,2557,3249,4352,3245,3246,2562,3328,3320,2558</elem>
			<elem id="10">304,305,302,301,643,644,647,646,3329,3322,3321,3319,4351,4355,4359,4352,3328,3331,3323,3320</elem>
			<elem id="11">305,306,303,302,644,645,648,647,3332,3325,3324,3322,4354,4357,4361,4355,3331,3334,3326,3323</elem>
			<elem id="12">306,57,58,303,645,239,240,648,2455,2457,2459,3325,3101,3102,3105,4357,3334,2456,2460,3326</elem>
			<elem id="13">82,301,71,4,280,646,261,72,2556,2515,2254,2255,3245,3179,2518,2519,2558,3320,2516,2256</elem>
			<elem id="14">301,302,70,71,646,647,260,261,3321,2511,2512,2515,4359,3175,3176,3179,3320,3323,2513,2516</elem>
			<elem id="15">302,303,69,70,647,648,259,260,3324,2507,2508,2511,4361,3171,3172,3175,3323,3326,2509,2513</elem>
			<elem id="16">303,58,5,69,648,240,59,259,2459,2258,2259,2507,3105,2462,2463,3171,3326,2460,2260,2509</elem>
			<elem id="17">33,198,640,282,34,201,649,285,2373,2997,3253,2374,2377,3005,3264,2378,2375,2998,4345,3254</elem>
			<elem id="18">198,197,641,640,201,200,650,649,2994,2995,4343,2997,3002,3003,4364,3005,2998,2996,4348,4345</elem>
			<elem id="19">197,196,642,641,200,199,651,650,2991,2992,4346,2995,2999,3000,4367,3003,2996,2993,4350,4348</elem>
			<elem id="20">196,23,238,642,199,24,241,651,2338,2339,3097,2992,2342,2343,3108,3000,2993,2340,3099,4350</elem>
<!-- ... 748 like lines cut -->
		</Elements>
		<Elements type="hex20" name="Talar Trochlea Cartilage">
			<elem id="769">13,120,400,107,1018,1035,1087,1028,2293,2693,2650,2294,5171,5227,5207,5172,2295,2695,3607,2652</elem>
			<elem id="770">120,121,401,400,1035,1036,1088,1087,2694,2697,3605,2693,5228,5230,5392,5227,2695,2699,3611,3607</elem>
			<elem id="771">121,122,402,401,1036,1037,1089,1088,2698,2701,3609,2697,5231,5233,5395,5230,2699,2702,3614,3611</elem>
			<elem id="772">122,14,123,402,1037,1019,1038,1089,2296,2298,2703,2701,5174,5175,5235,5233,2702,2300,2707,3614</elem>
			<elem id="773">107,400,403,108,1028,1087,1090,1029,2650,3606,2654,2651,5207,5393,5210,5208,2652,3607,3618,2656</elem>
			<elem id="774">400,401,404,403,1087,1088,1091,1090,3605,3610,3616,3606,5392,5396,5400,5393,3607,3611,3622,3618</elem>
			<elem id="775">401,402,405,404,1088,1089,1092,1091,3609,3613,3620,3610,5395,5398,5403,5396,3611,3614,3625,3622</elem>
			<elem id="776">402,123,124,405,1089,1038,1039,1092,2703,2705,2708,3613,5235,5236,5239,5398,3614,2707,2712,3625</elem>
			<elem id="777">108,403,406,109,1029,1090,1093,1030,2654,3617,2658,2655,5210,5401,5213,5211,2656,3618,3629,2660</elem>
			<elem id="778">403,404,407,406,1090,1091,1094,1093,3616,3621,3627,3617,5400,5404,5408,5401,3618,3622,3633,3629</elem>
			<elem id="779">404,405,408,407,1091,1092,1095,1094,3620,3624,3631,3621,5403,5406,5411,5404,3622,3625,3636,3633</elem>
			<elem id="780">405,124,125,408,1092,1039,1040,1095,2708,2710,2713,3624,5239,5240,5243,5406,3625,2712,2717,3636</elem>
			<elem id="781">109,406,409,110,1030,1093,1096,1031,2658,3628,2662,2659,5213,5409,5216,5214,2660,3629,3640,2664</elem>
			<elem id="782">406,407,410,409,1093,1094,1097,1096,3627,3632,3638,3628,5408,5412,5416,5409,3629,3633,3644,3640</elem>
			<elem id="783">407,408,411,410,1094,1095,1098,1097,3631,3635,3642,3632,5411,5414,5419,5412,3633,3636,3647,3644</elem>
			<elem id="784">408,125,126,411,1095,1040,1041,1098,2713,2715,2718,3635,5243,5244,5247,5414,3636,2717,2722,3647</elem>
			<elem id="785">110,409,412,111,1031,1096,1099,1032,2662,3639,2666,2663,5216,5417,5219,5217,2664,3640,3651,2668</elem>
			<elem id="786">409,410,413,412,1096,1097,1100,1099,3638,3643,3649,3639,5416,5420,5424,5417,3640,3644,3655,3651</elem>
			<elem id="787">410,411,414,413,1097,1098,1101,1100,3642,3646,3653,3643,5419,5422,5427,5420,3644,3647,3658,3655</elem>
			<elem id="788">411,126,127,414,1098,1041,1042,1101,2718,2720,2723,3646,5247,5248,5251,5422,3647,2722,2727,3658</elem>
<!-- ... 1004 like lines cut -->
		</Elements>
		<Elements type="hex20" name="Tibial Plafond Bone">
			<elem id="1793">8498,8559,8557,8497,8528,8613,8615,8527,9443,9649,9439,9440,9550,9812,9546,9547,9444,9654,9650,9441</elem>
			<elem id="1794">8559,8560,8558,8557,8613,8614,8616,8615,9655,9652,9651,9649,9813,9815,9817,9812,9654,9656,9653,9650</elem>
			<elem id="1795">8497,8557,8555,8496,8527,8615,8617,8526,9439,9644,9435,9436,9546,9818,9542,9543,9441,9650,9645,9437</elem>
			<elem id="1796">8557,8558,8556,8555,8615,8616,8618,8617,9651,9647,9646,9644,9817,9820,9822,9818,9650,9653,9648,9645</elem>
			<elem id="1797">8496,8555,8553,8495,8526,8617,8619,8525,9435,9639,9431,9432,9542,9823,9538,9539,9437,9645,9640,9433</elem>
			<elem id="1798">8555,8556,8554,8553,8617,8618,8620,8619,9646,9642,9641,9639,9822,9825,9827,9823,9645,9648,9643,9640</elem>
			<elem id="1799">8495,8553,8485,8482,8525,8619,8512,8486,9431,9387,9373,9374,9538,9495,9390,9391,9433,9640,9388,9375</elem>
			<elem id="1800">8553,8554,8484,8485,8619,8620,8511,8512,9641,9383,9384,9387,9827,9491,9492,9495,9640,9643,9385,9388</elem>
			<elem id="1801">8528,8613,8615,8527,8532,8621,8623,8531,9550,9812,9546,9547,9565,9830,9561,9562,9551,9814,9819,9548</elem>
			<elem id="1802">8613,8614,8616,8615,8621,8622,8624,8623,9813,9815,9817,9812,9831,9833,9835,9830,9814,9816,9821,9819</elem>
			<elem id="1803">8527,8615,8617,8526,8531,8623,8625,8530,9546,9818,9542,9543,9561,9836,9557,9558,9548,9819,9824,9544</elem>
			<elem id="1804">8615,8616,8618,8617,8623,8624,8626,8625,9817,9820,9822,9818,9835,9838,9840,9836,9819,9821,9826,9824</elem>
			<elem id="1805">8526,8617,8619,8525,8530,8625,8627,8529,9542,9823,9538,9539,9557,9841,9553,9554,9544,9824,9828,9540</elem>
			<elem id="1806">8617,8618,8620,8619,8625,8626,8628,8627,9822,9825,9827,9823,9840,9843,9845,9841,9824,9826,9829,9828</elem>
			<elem id="1807">8525,8619,8512,8486,8529,8627,8514,8487,9538,9495,9390,9391,9553,9502,9395,9396,9540,9828,9496,9392</elem>
			<elem id="1808">8619,8620,8511,8512,8627,8628,8513,8514,9827,9491,9492,9495,9845,9498,9499,9502,9828,9829,9493,9496</elem>
			<elem id="1809">8532,8621,8623,8531,8536,8629,8631,8535,9565,9830,9561,9562,9580,9848,9576,9577,9566,9832,9837,9563</elem>
			<elem id="1810">8621,8622,8624,8623,8629,8630,8632,8631,9831,9833,9835,9830,9849,9851,9853,9848,9832,9834,9839,9837</elem>
			<elem id="1811">8531,8623,8625,8530,8535,8631,8633,8534,9561,9836,9557,9558,9576,9854,9572,9573,9563,9837,9842,9559</elem>
			<elem id="1812">8623,8624,8626,8625,8631,8632,8634,8633,9835,9838,9840,9836,9853,9856,9858,9854,9837,9839,9844,9842</elem>
<!-- ... 108 like lines cut -->
		</Elements>
		<Elements type="hex20" name="Tibial Plafond Cartilage">
			<elem id="1921">8497,8498,8528,8527,8736,8737,8753,8752,9440,9444,9547,9441,10089,10092,10133,10090,9442,9445,9552,9549</elem>
			<elem id="1922">8496,8497,8527,8526,8735,8736,8752,8751,9436,9441,9543,9437,10086,10090,10130,10087,9438,9442,9549,9545</elem>
			<elem id="1923">8495,8496,8526,8525,8734,8735,8751,8750,9432,9437,9539,9433,10083,10087,10127,10084,9434,9438,9545,9541</elem>
			<elem id="1924">8482,8495,8525,8486,8725,8734,8750,8727,9374,9433,9391,9375,10048,10084,10056,10049,9377,9434,9541,9394</elem>
			<elem id="1925">8527,8528,8532,8531,8752,8753,8757,8756,9547,9551,9562,9548,10133,10136,10144,10134,9549,9552,9567,9564</elem>
			<elem id="1926">8526,8527,8531,8530,8751,8752,8756,8755,9543,9548,9558,9544,10130,10134,10141,10131,9545,9549,9564,9560</elem>
			<elem id="1927">8525,8526,8530,8529,8750,8751,8755,8754,9539,9544,9554,9540,10127,10131,10138,10128,9541,9545,9560,9556</elem>
			<elem id="1928">8486,8525,8529,8487,8727,8750,8754,8728,9391,9540,9396,9392,10056,10128,10060,10057,9394,9541,9556,9399</elem>
			<elem id="1929">8531,8532,8536,8535,8756,8757,8761,8760,9562,9566,9577,9563,10144,10147,10155,10145,9564,9567,9582,9579</elem>
			<elem id="1930">8530,8531,8535,8534,8755,8756,8760,8759,9558,9563,9573,9559,10141,10145,10152,10142,9560,9564,9579,9575</elem>
			<elem id="1931">8529,8530,8534,8533,8754,8755,8759,8758,9554,9559,9569,9555,10138,10142,10149,10139,9556,9560,9575,9571</elem>
			<elem id="1932">8487,8529,8533,8488,8728,8754,8758,8729,9396,9555,9401,9397,10060,10139,10064,10061,9399,9556,9571,9404</elem>
			<elem id="1933">8535,8536,8540,8539,8760,8761,8765,8764,9577,9581,9592,9578,10155,10158,10166,10156,9579,9582,9597,9594</elem>
			<elem id="1934">8534,8535,8539,8538,8759,8760,8764,8763,9573,9578,9588,9574,10152,10156,10163,10153,9575,9579,9594,9590</elem>
			<elem id="1935">8533,8534,8538,8537,8758,8759,8763,8762,9569,9574,9584,9570,10149,10153,10160,10150,9571,9575,9590,9586</elem>
			<elem id="1936">8488,8533,8537,8489,8729,8758,8762,8730,9401,9570,9406,9402,10064,10150,10068,10065,9404,9571,9586,9409</elem>
			<elem id="1937">8539,8540,8544,8543,8764,8765,8769,8768,9592,9596,9607,9593,10166,10169,10177,10167,9594,9597,9612,9609</elem>
			<elem id="1938">8538,8539,8543,8542,8763,8764,8768,8767,9588,9593,9603,9589,10163,10167,10174,10164,9590,9594,9609,9605</elem>
			<elem id="1939">8537,8538,8542,8541,8762,8763,8767,8766,9584,9589,9599,9585,10160,10164,10171,10161,9586,9590,9605,9601</elem>
			<elem id="1940">8489,8537,8541,8490,8730,8762,8766,8731,9406,9585,9411,9407,10068,10161,10072,10069,9409,9586,9601,9414</elem>
<!-- ... 492 like lines cut -->
		</Elements>
		<Surface name="Inter Talar Trochlea">
			<quad8 id="1">13,120,400,107,2293,2693,2650,2294</quad8>
			<quad8 id="2">120,121,401,400,2694,2697,3605,2693</quad8>
			<quad8 id="3">121,122,402,401,2698,2701,3609,2697</quad8>
			<quad8 id="4">122,14,123,402,2296,2298,2703,2701</quad8>
			<quad8 id="5">107,400,403,108,2650,3606,2654,2651</quad8>
			<quad8 id="6">400,401,404,403,3605,3610,3616,3606</quad8>
			<quad8 id="7">401,402,405,404,3609,3613,3620,3610</quad8>
			<quad8 id="8">402,123,124,405,2703,2705,2708,3613</quad8>
			<quad8 id="9">108,403,406,109,2654,3617,2658,2655</quad8>
			<quad8 id="10">403,404,407,406,3616,3621,3627,3617</quad8>
			<quad8 id="11">404,405,408,407,3620,3624,3631,3621</quad8>
			<quad8 id="12">405,124,125,408,2708,2710,2713,3624</quad8>
			<quad8 id="13">109,406,409,110,2658,3628,2662,2659</quad8>
			<quad8 id="14">406,407,410,409,3627,3632,3638,3628</quad8>
			<quad8 id="15">407,408,411,410,3631,3635,3642,3632</quad8>
			<quad8 id="16">408,125,126,411,2713,2715,2718,3635</quad8>
			<quad8 id="17">110,409,412,111,2662,3639,2666,2663</quad8>
			<quad8 id="18">409,410,413,412,3638,3643,3649,3639</quad8>
			<quad8 id="19">410,411,414,413,3642,3646,3653,3643</quad8>
			<quad8 id="20">411,126,127,414,2718,2720,2723,3646</quad8>
<!-- ... 108 like lines cut -->
		</Surface>
		<Surface name="Inter Tibial Plafond">
			<quad8 id="1">8497,8498,8528,8527,9440,9444,9547,9441</quad8>
			<quad8 id="2">8496,8497,8527,8526,9436,9441,9543,9437</quad8>
			<quad8 id="3">8495,8496,8526,8525,9432,9437,9539,9433</quad8>
			<quad8 id="4">8482,8495,8525,8486,9374,9433,9391,9375</quad8>
			<quad8 id="5">8527,8528,8532,8531,9547,9551,9562,9548</quad8>
			<quad8 id="6">8526,8527,8531,8530,9543,9548,9558,9544</quad8>
			<quad8 id="7">8525,8526,8530,8529,9539,9544,9554,9540</quad8>
			<quad8 id="8">8486,8525,8529,8487,9391,9540,9396,9392</quad8>
			<quad8 id="9">8531,8532,8536,8535,9562,9566,9577,9563</quad8>
			<quad8 id="10">8530,8531,8535,8534,9558,9563,9573,9559</quad8>
			<quad8 id="11">8529,8530,8534,8533,9554,9559,9569,9555</quad8>
			<quad8 id="12">8487,8529,8533,8488,9396,9555,9401,9397</quad8>
			<quad8 id="13">8535,8536,8540,8539,9577,9581,9592,9578</quad8>
			<quad8 id="14">8534,8535,8539,8538,9573,9578,9588,9574</quad8>
			<quad8 id="15">8533,8534,8538,8537,9569,9574,9584,9570</quad8>
			<quad8 id="16">8488,8533,8537,8489,9401,9570,9406,9402</quad8>
			<quad8 id="17">8539,8540,8544,8543,9592,9596,9607,9593</quad8>
			<quad8 id="18">8538,8539,8543,8542,9588,9593,9603,9589</quad8>
			<quad8 id="19">8537,8538,8542,8541,9584,9589,9599,9585</quad8>
			<quad8 id="20">8489,8537,8541,8490,9406,9585,9411,9407</quad8>
<!-- ... 44 like lines cut -->
		</Surface>
		<Surface name="Intra Articular_primary">
			<quad8 id="1">9303,9304,9320,9319,11653,11655,11681,11654</quad8>
			<quad8 id="2">9302,9303,9319,9318,11651,11654,11679,11652</quad8>
			<quad8 id="3">9301,9302,9318,9317,11649,11652,11677,11650</quad8>
			<quad8 id="4">9292,9301,9317,9294,11623,11650,11629,11624</quad8>
			<quad8 id="5">9319,9320,9324,9323,11681,11683,11688,11682</quad8>
			<quad8 id="6">9318,9319,9323,9322,11679,11682,11686,11680</quad8>
			<quad8 id="7">9317,9318,9322,9321,11677,11680,11684,11678</quad8>
			<quad8 id="8">9294,9317,9321,9295,11629,11678,11632,11630</quad8>
			<quad8 id="9">9323,9324,9328,9327,11688,11690,11695,11689</quad8>
			<quad8 id="10">9322,9323,9327,9326,11686,11689,11693,11687</quad8>
			<quad8 id="11">9321,9322,9326,9325,11684,11687,11691,11685</quad8>
			<quad8 id="12">9295,9321,9325,9296,11632,11685,11635,11633</quad8>
			<quad8 id="13">9327,9328,9332,9331,11695,11697,11702,11696</quad8>
			<quad8 id="14">9326,9327,9331,9330,11693,11696,11700,11694</quad8>
			<quad8 id="15">9325,9326,9330,9329,11691,11694,11698,11692</quad8>
			<quad8 id="16">9296,9325,9329,9297,11635,11692,11638,11636</quad8>
			<quad8 id="17">9331,9332,9336,9335,11702,11704,11709,11703</quad8>
			<quad8 id="18">9330,9331,9335,9334,11700,11703,11707,11701</quad8>
			<quad8 id="19">9329,9330,9334,9333,11698,11701,11705,11699</quad8>
			<quad8 id="20">9297,9329,9333,9298,11638,11699,11641,11639</quad8>
<!-- ... 44 like lines cut -->
		</Surface>
		<Surface name="Intra Articular_secondary">
			<quad8 id="1">2089,2106,2158,2099,8202,8241,8228,8203</quad8>
			<quad8 id="2">2106,2107,2159,2158,8242,8243,8354,8241</quad8>
			<quad8 id="3">2107,2108,2160,2159,8244,8245,8356,8243</quad8>
			<quad8 id="4">2108,2090,2109,2160,8204,8205,8246,8245</quad8>
			<quad8 id="5">2099,2158,2161,2100,8228,8355,8230,8229</quad8>
			<quad8 id="6">2158,2159,2162,2161,8354,8357,8359,8355</quad8>
			<quad8 id="7">2159,2160,2163,2162,8356,8358,8361,8357</quad8>
			<quad8 id="8">2160,2109,2110,2163,8246,8247,8249,8358</quad8>
			<quad8 id="9">2100,2161,2164,2101,8230,8360,8232,8231</quad8>
			<quad8 id="10">2161,2162,2165,2164,8359,8362,8364,8360</quad8>
			<quad8 id="11">2162,2163,2166,2165,8361,8363,8366,8362</quad8>
			<quad8 id="12">2163,2110,2111,2166,8249,8250,8252,8363</quad8>
			<quad8 id="13">2101,2164,2167,2102,8232,8365,8234,8233</quad8>
			<quad8 id="14">2164,2165,2168,2167,8364,8367,8369,8365</quad8>
			<quad8 id="15">2165,2166,2169,2168,8366,8368,8371,8367</quad8>
			<quad8 id="16">2166,2111,2112,2169,8252,8253,8255,8368</quad8>
			<quad8 id="17">2102,2167,2170,2103,8234,8370,8236,8235</quad8>
			<quad8 id="18">2167,2168,2171,2170,8369,8372,8374,8370</quad8>
			<quad8 id="19">2168,2169,2172,2171,8371,8373,8376,8372</quad8>
			<quad8 id="20">2169,2112,2113,2172,8255,8256,8258,8373</quad8>
<!-- ... 108 like lines cut -->
		</Surface>
		<SurfacePair name="Intra Articular">
			<primary>Intra Articular_primary</primary>
			<secondary>Intra Articular_secondary</secondary>
		</SurfacePair>
	</Mesh>
	<MeshDomains>
		<SolidDomain name="Talar Trochlea Bone" mat="Talar Trochlea Bone"/>
		<SolidDomain name="Talar Trochlea Cartilage" mat="Talar Trochlea Cartilage"/>
		<SolidDomain name="Tibial Plafond Bone" mat="Tibial Plafond Bone"/>
		<SolidDomain name="Tibial Plafond Cartilage" mat="Tibial Plafond Cartilage"/>
	</MeshDomains>
	<Boundary>
		<bc name="Inter Talar Trochlea" type="rigid" node_set="@surface:Inter Talar Trochlea">
			<rb>1</rb>
		</bc>
		<bc name="Inter Tibial Plafond" type="rigid" node_set="@surface:Inter Tibial Plafond">
			<rb>3</rb>
		</bc>
	</Boundary>
	<Rigid>
		<rigid_constraint name="Talus Fixed" type="fix">
			<rb>1</rb>
			<dofs>Rx,Ry,Rz,Ru,Rv,Rw</dofs>
		</rigid_constraint>
		<rigid_constraint name="Tibia Fixed" type="fix">
			<rb>3</rb>
			<dofs>Rx,Ry,Ru,Rv,Rw</dofs>
		</rigid_constraint>
	</Rigid>
	<Contact>
		<contact type="sliding-biphasic" name="Intra Articular" surface_pair="Intra Articular">
			<laugon>1</laugon>
			<tolerance>0.2</tolerance>
			<gaptol>0</gaptol>
			<ptol>0</ptol>
			<penalty>20</penalty>
			<two_pass>0</two_pass>
			<auto_penalty>0</auto_penalty>
			<pressure_penalty>0</pressure_penalty>
			<symmetric_stiffness>0</symmetric_stiffness>
			<search_radius>1</search_radius>
			<seg_up>0</seg_up>
			<minaug>0</minaug>
			<maxaug>10</maxaug>
			<search_tol>0.01</search_tol>
			<update_penalty>0</update_penalty>
			<smooth_aug>0</smooth_aug>
			<fric_coeff>0.01</fric_coeff>
			<contact_frac>0</contact_frac>
			<smooth_fls>0</smooth_fls>
			<knmult>1</knmult>
			<node_reloc>0</node_reloc>
			<flip_primary>0</flip_primary>
			<flip_secondary>0</flip_secondary>
			<shell_bottom_primary>0</shell_bottom_primary>
			<shell_bottom_secondary>0</shell_bottom_secondary>
		</contact>
	</Contact>
	<Step>
		<step id="1" name="Step1">
			<Control>
				<analysis>TRANSIENT</analysis>
				<time_steps>700</time_steps>
				<step_size>0.01</step_size>
				<solver>
					<max_refs>60</max_refs>
					<max_ups>10</max_ups>
					<diverge_reform>1</diverge_reform>
					<reform_each_time_step>1</reform_each_time_step>
					<dtol>0.001</dtol>
					<etol>0.01</etol>
					<rtol>0</rtol>
					<ptol>0.01</ptol>
					<lstol>0.9</lstol>
					<min_residual>1e-20</min_residual>
					<qnmethod>BFGS</qnmethod>
					<mixed_formulation>default</mixed_formulation>
				</solver>
				<time_stepper>
					<dtmin>0.005</dtmin>
					<dtmax>0.01</dtmax>
					<max_retries>5</max_retries>
					<opt_iter>10</opt_iter>
				</time_stepper>
			</Control>
			<Rigid>
				<rigid_constraint name="Tibia Force Ctrl Compression" type="force">
					<rb>3</rb>
					<dof>Rz</dof>
					<value lc="1">-166.81</value>
					<load_type>1</load_type>
				</rigid_constraint>
				<rigid_constraint name="Tibia Rotation Ctrl Dorsi/Plantarflexion" type="prescribe">
					<rb>3</rb>
					<dof>Rv</dof>
					<value lc="2">0.1</value>
					<relative>0</relative>
				</rigid_constraint>
			</Rigid>
			<Constraints>
			</Constraints>
		</step>
	</Step>
	<LoadData>
		<load_controller id="1" type="loadcurve">
			<interpolate>LINEAR</interpolate>
			<points>
				<point>0,0</point>
				<point>1,1</point>
				<point>1.02168608782,1.13758278006</point>
				<point>1.10784566407,1.47109643606</point>
				<point>1.29452474596,1.7637716852</point>
				<point>1.49556375723,2.05644693435</point>
				<point>1.63916305098,2.36954138692</point>
				<point>1.78276234474,2.70986144406</point>
				<point>1.91200170913,3.02295589663</point>
				<point>2.06278096758,3.34966315149</point>
				<point>2.23510012009,3.64233840063</point>
				<point>2.47921891948,3.88736884177</point>
				<point>2.79513736575,3.87375603949</point>
				<point>3.08233595327,3.75124081891</point>
				<point>3.36953454079,3.58788719149</point>
				<point>3.67109305768,3.4789847732</point>
				<point>3.97983153927,3.47217837206</point>
				<point>4.28857002085,3.51301677891</point>
				<point>4.56140867899,3.58788719149</point>
				<point>4.88450708995,3.71040241206</point>
<!-- ... 12 like lines cut -->
			</points>
		</load_controller>
		<load_controller id="2" type="loadcurve">
			<interpolate>LINEAR</interpolate>
			<points>
				<point>1,0</point>
				<point>1.26977771158,-0.423168577635</point>
				<point>1.4482320038,-0.859105531988</point>
				<point>1.5950460292,-1.19319434954</point>
				<point>1.75081995447,-1.45095434061</point>
				<point>2,-1.54229</point>
				<point>2.14577606805,-1.41893041031</point>
				<point>2.5064140485,-0.839341300172</point>
				<point>2.66995754283,-0.55329901177</point>
				<point>2.77977556881,-0.390635969101</point>
				<point>2.88959359479,-0.253999013259</point>
				<point>3.03372975389,-0.0848294488838</point>
				<point>3.17786591299,0.0518075069581</point>
				<point>3.43182009806,0.260016201574</point>
				<point>4.01522836109,0.637394460566</point>
				<point>4.58490937086,0.975733589317</point>
				<point>5.16145400725,1.28804663124</point>
				<point>5.40168093909,1.47673576074</point>
				<point>5.71740776378,1.67843793365</point>
				<point>5.86266912553,1.74940907713</point>
<!-- ... 8 like lines cut -->
			</points>
		</load_controller>
	</LoadData>
	<Output>
		<plotfile type="febio">
			<var type="contact area"/>
			<var type="contact force"/>
			<var type="contact gap"/>
			<var type="contact pressure"/>
			<var type="contact traction"/>
			<var type="displacement"/>
			<var type="infinitesimal strain"/>
			<var type="reaction forces"/>
			<var type="relative volume"/>
			<var type="rigid angular position"/>
			<var type="rigid force"/>
			<var type="rigid position"/>
			<var type="rigid rotation vector"/>
			<var type="Euler angle"/>
			<var type="stress"/>
			<var type="PK1 stress"/>
			<var type="PK2 stress"/>
			<var type="effective fluid pressure"/>
			<var type="effective friction coefficient"/>
			<var type="fluid pressure"/>
			<var type="fluid flux"/>
			<var type="fluid flow rate"/>
			<var type="fluid force"/>
			<var type="fluid load support"/>
			<var type="permeability"/>
			<var type="porosity"/>
			<var type="referential solid volume fraction"/>
			<var type="solid stress"/>
		</plotfile>
	</Output>
</febio_spec>
