<?xml version="1.0" encoding="ISO-8859-1"?>
<febio_spec version="3.0">
	<Module type="biphasic"/>
	<Globals>
		<Constants>
			<T>0</T>
			<R>0</R>
			<Fc>0</Fc>
		</Constants>
	</Globals>
	<Material>
		<material id="1" name="Talar Trochlea Bone" type="rigid body">
			<density>1</density>
			<center_of_mass>0,0,0</center_of_mass>
			<E>13000</E>
			<v>0.3</v>
		</material>
		<material id="2" name="Talar Trochlea Cartilage" type="biphasic">
			<phi0>0.2</phi0>
			<fluid_density>1</fluid_density>
			<tau>0</tau>
			<solid type="EFD neo-Hookean">
				<E>12</E>
				<v>0.42</v>
				<beta>3.5,3.5,3.5</beta>
				<ksi>4,4,4</ksi>
			</solid>
			<permeability type="perm-const-iso">
				<perm>0.01</perm>
			</permeability>
		</material>
		<material id="3" name="Tibial Plafond Bone" type="rigid body">
			<density>1</density>
			<center_of_mass>0,0,1</center_of_mass>
			<E>13000</E>
			<v>0.3</v>
		</material>
		<material id="4" name="Tibial Plafond Cartilage" type="biphasic">
			<phi0>0.2</phi0>
			<fluid_density>1</fluid_density>
			<tau>0</tau>
			<solid type="EFD neo-Hookean">
				<E>12</E>
				<v>0.42</v>
				<beta>3.3,3.5,3.5</beta>
				<ksi>4,4,4</ksi>
			</solid>
			<permeability type="perm-const-iso">
				<perm>0.01</perm>
			</permeability>
		</material>
	</Material>
	<Mesh>
		<Nodes name="Talar Trochlea Plafond">
			<node id="1">-3.53553391,4.99999985,-1.3397448e-07</node>
			<node id="2">0,4.99999985,-1.3397448e-07</node>
			<node id="3">3.53553391,4.99999985,-1.3397448e-07</node>
			<node id="4">-3.53553391,4.99999995,3.53553377</node>
			<node id="5">0,4.99999995,3.53553377</node>
			<node id="6">3.53553391,4.99999995,3.53553377</node>
			<node id="7">-3.53553391,-5.00000015,1.33974484e-07</node>
			<node id="8">0,-5.00000015,1.33974484e-07</node>
			<node id="9">3.53553391,-5.00000015,1.33974484e-07</node>
			<node id="10">-3.53553391,-5.00000005,3.53553404</node>
			<node id="11">0,-5.00000005,3.53553404</node>
			<node id="12">3.53553391,-5.00000005,3.53553404</node>
			<node id="13">10,4.99999985,-1.3397448e-07</node>
			<node id="14">7.07106781,5.00000004,7.07106768</node>
			<node id="15">0,5.00000012,9.99999987</node>
			<node id="16">-7.07106781,5.00000004,7.07106768</node>
			<node id="17">-10,4.99999985,-1.3397448e-07</node>
			<node id="18">10,-5.00000015,1.33974484e-07</node>
			<node id="19">7.07106781,-4.99999996,7.07106795</node>
			<node id="20">0,-4.99999988,10.0000001</node>
<!-- ... 16045 like lines cut -->
		</Nodes>
		<Nodes name="Tibial Plafond">
			<node id="16066">0,4.99999997,12.9443636</node>
			<node id="16067">0,-5.00000003,12.9443639</node>
			<node id="16068">0,5.00000011,17.9443636</node>
			<node id="16069">0,5.00000004,15.4443636</node>
			<node id="16070">0,3.74999997,12.9443636</node>
			<node id="16071">0,2.49999997,12.9443637</node>
			<node id="16072">0,1.24999997,12.9443637</node>
			<node id="16073">0,-2.84133721e-08,12.9443637</node>
			<node id="16074">0,-1.25000003,12.9443638</node>
			<node id="16075">0,-2.50000003,12.9443638</node>
			<node id="16076">0,-3.75000003,12.9443638</node>
			<node id="16077">0,-4.99999996,15.4443639</node>
			<node id="16078">0,-4.99999989,17.9443639</node>
			<node id="16079">2.34108386,4.99999997,12.713787</node>
			<node id="16080">4.59220119,4.99999995,12.030918</node>
			<node id="16081">6.6668428,4.99999992,10.9219989</node>
			<node id="16082">8.48528137,4.99999988,9.42964497</node>
			<node id="16083">8.48528137,-5.00000012,9.42964523</node>
			<node id="16084">6.6668428,-5.00000008,10.9219992</node>
			<node id="16085">4.59220119,-5.00000005,12.0309183</node>
<!-- ... 6049 like lines cut -->
		</Nodes>
		<Elements type="hex8" name="Talar Trochlea Bone">
			<elem id="1">1,2242,8483,2244,2243,8482,14274,10488</elem>
			<elem id="2">2242,32,2372,8483,8482,2371,8485,14274</elem>
			<elem id="3">2244,8483,2565,84,10488,14274,8493,2564</elem>
			<elem id="4">8483,2372,307,2565,14274,8485,3336,8493</elem>
			<elem id="5">2243,8482,14274,10488,33,2374,8527,2375</elem>
			<elem id="6">8482,2371,8485,14274,2374,198,2998,8527</elem>
			<elem id="7">10488,14274,8493,2564,2375,8527,3254,282</elem>
			<elem id="8">14274,8485,3336,8493,8527,2998,640,3254</elem>
			<elem id="9">32,2368,8486,2372,2371,8484,14275,8485</elem>
			<elem id="10">2368,31,2370,8486,8484,2369,8488,14275</elem>
			<elem id="11">2372,8486,3335,307,8485,14275,8495,3336</elem>
			<elem id="12">8486,2370,308,3335,14275,8488,3338,8495</elem>
			<elem id="13">2371,8484,14275,8485,198,2994,8530,2998</elem>
			<elem id="14">8484,2369,8488,14275,2994,197,2996,8530</elem>
			<elem id="15">8485,14275,8495,3336,2998,8530,4343,640</elem>
			<elem id="16">14275,8488,3338,8495,8530,2996,641,4343</elem>
			<elem id="17">31,2365,8489,2370,2369,8487,14276,8488</elem>
			<elem id="18">2365,30,2367,8489,8487,2366,8491,14276</elem>
			<elem id="19">2370,8489,3337,308,8488,14276,8498,3338</elem>
			<elem id="20">8489,2367,309,3337,14276,8491,3339,8498</elem>
<!-- ... 6124 like lines cut -->
		</Elements>
		<Elements type="hex8" name="Talar Trochlea Cartilage">
			<elem id="6145">13,2294,10884,2292,2295,10882,15042,10883</elem>
			<elem id="6146">2294,120,2693,10884,10882,2695,10886,15042</elem>
			<elem id="6147">2292,10884,2651,107,10883,15042,10894,2652</elem>
			<elem id="6148">10884,2693,400,2651,15042,10886,3607,10894</elem>
			<elem id="6149">2295,10882,15042,10883,1018,5172,11292,5171</elem>
			<elem id="6150">10882,2695,10886,15042,5172,1035,5228,11292</elem>
			<elem id="6151">10883,15042,10894,2652,5171,11292,5208,1028</elem>
			<elem id="6152">15042,10886,3607,10894,11292,5228,1087,5208</elem>
			<elem id="6153">120,2692,10887,2693,2695,10885,15043,10886</elem>
			<elem id="6154">2692,121,2697,10887,10885,2699,10889,15043</elem>
			<elem id="6155">2693,10887,3604,400,10886,15043,10897,3607</elem>
			<elem id="6156">10887,2697,401,3604,15043,10889,3611,10897</elem>
			<elem id="6157">2695,10885,15043,10886,1035,5227,11295,5228</elem>
			<elem id="6158">10885,2699,10889,15043,5227,1036,5231,11295</elem>
			<elem id="6159">10886,15043,10897,3607,5228,11295,5392,1087</elem>
			<elem id="6160">15043,10889,3611,10897,11295,5231,1088,5392</elem>
			<elem id="6161">121,2696,10890,2697,2699,10888,15044,10889</elem>
			<elem id="6162">2696,122,2700,10890,10888,2702,10892,15044</elem>
			<elem id="6163">2697,10890,3608,401,10889,15044,10900,3611</elem>
			<elem id="6164">10890,2700,402,3608,15044,10892,3614,10900</elem>
<!-- ... 8172 like lines cut -->
		</Elements>
		<Elements type="hex8" name="Tibial Plafond Bone">
			<elem id="14337">16082,17028,19352,17023,17027,19351,21495,19769</elem>
			<elem id="14338">17028,16143,17234,19352,19351,17239,19355,21495</elem>
			<elem id="14339">17023,19352,17025,16081,19769,21495,19357,17024</elem>
			<elem id="14340">19352,17234,16141,17025,21495,19355,17235,19357</elem>
			<elem id="14341">17027,19351,21495,19769,16112,17135,19376,17130</elem>
			<elem id="14342">19351,17239,19355,21495,17135,16197,17397,19376</elem>
			<elem id="14343">19769,21495,19357,17024,17130,19376,17132,16111</elem>
			<elem id="14344">21495,19355,17235,19357,19376,17397,16199,17132</elem>
			<elem id="14345">16143,17238,19356,17234,17239,19353,21496,19355</elem>
			<elem id="14346">17238,16144,17236,19356,19353,17240,19354,21496</elem>
			<elem id="14347">17234,19356,17233,16141,19355,21496,19359,17235</elem>
			<elem id="14348">19356,17236,16142,17233,21496,19354,17237,19359</elem>
			<elem id="14349">17239,19353,21496,19355,16197,17396,19380,17397</elem>
			<elem id="14350">19353,17240,19354,21496,17396,16198,17399,19380</elem>
			<elem id="14351">19355,21496,19359,17235,17397,19380,17401,16199</elem>
			<elem id="14352">21496,19354,17237,19359,19380,17399,16200,17401</elem>
			<elem id="14353">16081,17025,19358,17019,17024,19357,21497,19772</elem>
			<elem id="14354">17025,16141,17229,19358,19357,17235,19361,21497</elem>
			<elem id="14355">17019,19358,17021,16080,19772,21497,19363,17020</elem>
			<elem id="14356">19358,17229,16139,17021,21497,19361,17230,19363</elem>
<!-- ... 1004 like lines cut -->
		</Elements>
		<Elements type="hex8" name="Tibial Plafond Cartilage">
			<elem id="15361">16081,17023,19769,17024,17026,19767,21623,19771</elem>
			<elem id="15362">17023,16082,17027,19769,19767,17029,19768,21623</elem>
			<elem id="15363">17024,19769,17130,16111,19771,21623,19779,17133</elem>
			<elem id="15364">19769,17027,16112,17130,21623,19768,17136,19779</elem>
			<elem id="15365">17026,19767,21623,19771,16320,17673,19977,17674</elem>
			<elem id="15366">19767,17029,19768,21623,17673,16321,17676,19977</elem>
			<elem id="15367">19771,21623,19779,17133,17674,19977,17717,16336</elem>
			<elem id="15368">21623,19768,17136,19779,19977,17676,16337,17717</elem>
			<elem id="15369">16080,17019,19772,17020,17022,19770,21624,19774</elem>
			<elem id="15370">17019,16081,17024,19772,19770,17026,19771,21624</elem>
			<elem id="15371">17020,19772,17126,16110,19774,21624,19782,17129</elem>
			<elem id="15372">19772,17024,16111,17126,21624,19771,17133,19782</elem>
			<elem id="15373">17022,19770,21624,19774,16319,17670,19980,17671</elem>
			<elem id="15374">19770,17026,19771,21624,17670,16320,17674,19980</elem>
			<elem id="15375">19774,21624,19782,17129,17671,19980,17714,16335</elem>
			<elem id="15376">21624,19771,17133,19782,19980,17674,16336,17714</elem>
			<elem id="15377">16079,17015,19775,17016,17018,19773,21625,19777</elem>
			<elem id="15378">17015,16080,17020,19775,19773,17022,19774,21625</elem>
			<elem id="15379">17016,19775,17122,16109,19777,21625,19785,17125</elem>
			<elem id="15380">19775,17020,16110,17122,21625,19774,17129,19785</elem>
<!-- ... 4076 like lines cut -->
		</Elements>
		<Surface name="Inter Talar Trochlea">
			<quad4 id="1">13,2294,10884,2292</quad4>
			<quad4 id="2">2294,120,2693,10884</quad4>
			<quad4 id="3">2292,10884,2651,107</quad4>
			<quad4 id="4">10884,2693,400,2651</quad4>
			<quad4 id="5">120,2692,10887,2693</quad4>
			<quad4 id="6">2692,121,2697,10887</quad4>
			<quad4 id="7">2693,10887,3604,400</quad4>
			<quad4 id="8">10887,2697,401,3604</quad4>
			<quad4 id="9">121,2696,10890,2697</quad4>
			<quad4 id="10">2696,122,2700,10890</quad4>
			<quad4 id="11">2697,10890,3608,401</quad4>
			<quad4 id="12">10890,2700,402,3608</quad4>
			<quad4 id="13">122,2296,10893,2700</quad4>
			<quad4 id="14">2296,14,2297,10893</quad4>
			<quad4 id="15">2700,10893,2704,402</quad4>
			<quad4 id="16">10893,2297,123,2704</quad4>
			<quad4 id="17">107,2651,10896,2649</quad4>
			<quad4 id="18">2651,400,3605,10896</quad4>
			<quad4 id="19">2649,10896,2655,108</quad4>
			<quad4 id="20">10896,3605,403,2655</quad4>
<!-- ... 492 like lines cut -->
		</Surface>
		<Surface name="Inter Tibial Plafond">
			<quad4 id="1">17023,16082,17027,19769</quad4>
			<quad4 id="2">16081,17023,19769,17024</quad4>
			<quad4 id="3">19769,17027,16112,17130</quad4>
			<quad4 id="4">17024,19769,17130,16111</quad4>
			<quad4 id="5">17019,16081,17024,19772</quad4>
			<quad4 id="6">16080,17019,19772,17020</quad4>
			<quad4 id="7">19772,17024,16111,17126</quad4>
			<quad4 id="8">17020,19772,17126,16110</quad4>
			<quad4 id="9">17015,16080,17020,19775</quad4>
			<quad4 id="10">16079,17015,19775,17016</quad4>
			<quad4 id="11">19775,17020,16110,17122</quad4>
			<quad4 id="12">17016,19775,17122,16109</quad4>
			<quad4 id="13">16959,16079,17016,19778</quad4>
			<quad4 id="14">16066,16959,19778,16958</quad4>
			<quad4 id="15">19778,17016,16109,16976</quad4>
			<quad4 id="16">16958,19778,16976,16070</quad4>
			<quad4 id="17">17130,16112,17134,19781</quad4>
			<quad4 id="18">16111,17130,19781,17131</quad4>
			<quad4 id="19">19781,17134,16116,17145</quad4>
			<quad4 id="20">17131,19781,17145,16115</quad4>
<!-- ... 236 like lines cut -->
		</Surface>
		<Surface name="Intra Articular_primary">
			<quad4 id="1">2089,8203,13741,8202</quad4>
			<quad4 id="2">8203,2106,8242,13741</quad4>
			<quad4 id="3">8202,13741,8229,2099</quad4>
			<quad4 id="4">13741,8242,2158,8229</quad4>
			<quad4 id="5">2106,8241,13745,8242</quad4>
			<quad4 id="6">8241,2107,8244,13745</quad4>
			<quad4 id="7">8242,13745,8354,2158</quad4>
			<quad4 id="8">13745,8244,2159,8354</quad4>
			<quad4 id="9">2107,8243,13749,8244</quad4>
			<quad4 id="10">8243,2108,8245,13749</quad4>
			<quad4 id="11">8244,13749,8356,2159</quad4>
			<quad4 id="12">13749,8245,2160,8356</quad4>
			<quad4 id="13">2108,8204,13753,8245</quad4>
			<quad4 id="14">8204,2090,8205,13753</quad4>
			<quad4 id="15">8245,13753,8247,2160</quad4>
			<quad4 id="16">13753,8205,2109,8247</quad4>
			<quad4 id="17">2099,8229,13757,8228</quad4>
			<quad4 id="18">8229,2158,8355,13757</quad4>
			<quad4 id="19">8228,13757,8231,2100</quad4>
			<quad4 id="20">13757,8355,2161,8231</quad4>
<!-- ... 492 like lines cut -->
		</Surface>
		<Surface name="Intra Articular_secondary">
			<quad4 id="1">16887,19237,21226,19238</quad4>
			<quad4 id="2">19237,16888,19239,21226</quad4>
			<quad4 id="3">19238,21226,19265,16903</quad4>
			<quad4 id="4">21226,19239,16904,19265</quad4>
			<quad4 id="5">16886,19235,21230,19236</quad4>
			<quad4 id="6">19235,16887,19238,21230</quad4>
			<quad4 id="7">19236,21230,19263,16902</quad4>
			<quad4 id="8">21230,19238,16903,19263</quad4>
			<quad4 id="9">16885,19233,21234,19234</quad4>
			<quad4 id="10">19233,16886,19236,21234</quad4>
			<quad4 id="11">19234,21234,19261,16901</quad4>
			<quad4 id="12">21234,19236,16902,19261</quad4>
			<quad4 id="13">16876,19208,21238,19207</quad4>
			<quad4 id="14">19208,16885,19234,21238</quad4>
			<quad4 id="15">19207,21238,19214,16878</quad4>
			<quad4 id="16">21238,19234,16901,19214</quad4>
			<quad4 id="17">16903,19265,21242,19266</quad4>
			<quad4 id="18">19265,16904,19267,21242</quad4>
			<quad4 id="19">19266,21242,19272,16907</quad4>
			<quad4 id="20">21242,19267,16908,19272</quad4>
<!-- ... 236 like lines cut -->
		</Surface>
		<SurfacePair name="Intra Articular">
			<primary>Intra Articular_primary</primary>
			<secondary>Intra Articular_secondary</secondary>
		</SurfacePair>
	</Mesh>
	<MeshDomains>
		<SolidDomain name="Talar Trochlea Bone" mat="Talar Trochlea Bone"/>
		<SolidDomain name="Talar Trochlea Cartilage" mat="Talar Trochlea Cartilage"/>
		<SolidDomain name="Tibial Plafond Bone" mat="Tibial Plafond Bone"/>
		<SolidDomain name="Tibial Plafond Cartilage" mat="Tibial Plafond Cartilage"/>
	</MeshDomains>
	<Boundary>
		<bc name="Inter Talar Trochlea" type="rigid" node_set="@surface:Inter Talar Trochlea">
			<rb>1</rb>
		</bc>
		<bc name="Inter Tibial Plafond" type="rigid" node_set="@surface:Inter Tibial Plafond">
			<rb>3</rb>
		</bc>
	</Boundary>
	<Rigid>
		<rigid_constraint name="Talus Fixed" type="fix">
			<rb>1</rb>
			<dofs>Rx,Ry,Rz,Ru,Rv,Rw</dofs>
		</rigid_constraint>
		<rigid_constraint name="Tibia Fixed" type="fix">
			<rb>3</rb>
			<dofs>Rx,Ry,Ru,Rv,Rw</dofs>
		</rigid_constraint>
	</Rigid>
	<Contact>
		<contact type="sliding-biphasic" name="Intra Articular" surface_pair="Intra Articular">
			<laugon>1</laugon>
			<tolerance>0.2</tolerance>
			<gaptol>0</gaptol>
			<ptol>0</ptol>
			<penalty>10</penalty>
			<two_pass>0</two_pass>
			<auto_penalty>0</auto_penalty>
			<pressure_penalty>0</pressure_penalty>
			<symmetric_stiffness>0</symmetric_stiffness>
			<search_radius>1</search_radius>
			<seg_up>0</seg_up>
			<minaug>0</minaug>
			<maxaug>10</maxaug>
			<search_tol>0.01</search_tol>
			<update_penalty>0</update_penalty>
			<smooth_aug>0</smooth_aug>
			<fric_coeff>0.01</fric_coeff>
			<contact_frac>0</contact_frac>
			<smooth_fls>0</smooth_fls>
			<knmult>1</knmult>
			<node_reloc>0</node_reloc>
			<flip_primary>0</flip_primary>
			<flip_secondary>0</flip_secondary>
			<shell_bottom_primary>0</shell_bottom_primary>
			<shell_bottom_secondary>0</shell_bottom_secondary>
		</contact>
	</Contact>
	<Step>
		<step id="1" name="Step1">
			<Control>
				<analysis>TRANSIENT</analysis>
				<time_steps>100</time_steps>
				<step_size>0.01</step_size>
				<solver>
					<max_refs>15</max_refs>
					<max_ups>10</max_ups>
					<diverge_reform>1</diverge_reform>
					<reform_each_time_step>1</reform_each_time_step>
					<dtol>0.001</dtol>
					<etol>0.01</etol>
					<rtol>0</rtol>
					<ptol>0.01</ptol>
					<lstol>0.9</lstol>
					<min_residual>1e-20</min_residual>
					<qnmethod>BFGS</qnmethod>
					<mixed_formulation>default</mixed_formulation>
				</solver>
				<time_stepper>
					<dtmin>0.005</dtmin>
					<dtmax>0.01</dtmax>
					<max_retries>5</max_retries>
					<opt_iter>10</opt_iter>
				</time_stepper>
			</Control>
			<Rigid>
				<rigid_constraint name="Tibia Displace Ctrl Compression" type="prescribe">
					<rb>3</rb>
					<dof>Rz</dof>
					<value lc="1">-1.01</value>
					<relative>0</relative>
				</rigid_constraint>
			</Rigid>
			<Constraints>
			</Constraints>
		</step>
		<step id="2" name="Step2">
			<Control>
				<analysis>TRANSIENT</analysis>
				<time_steps>600</time_steps>
				<step_size>0.01</step_size>
				<solver>
					<max_refs>15</max_refs>
					<max_ups>10</max_ups>
					<diverge_reform>1</diverge_reform>
					<reform_each_time_step>1</reform_each_time_step>
					<dtol>0.001</dtol>
					<etol>0.01</etol>
					<rtol>0</rtol>
					<ptol>0.01</ptol>
					<lstol>0.9</lstol>
					<min_residual>1e-20</min_residual>
					<qnmethod>BFGS</qnmethod>
					<mixed_formulation>default</mixed_formulation>
				</solver>
				<time_stepper>
					<dtmin>0.005</dtmin>
					<dtmax>0.01</dtmax>
					<max_retries>5</max_retries>
					<opt_iter>10</opt_iter>
				</time_stepper>
			</Control>
			<Rigid>
				<rigid_constraint name="Tibia Force Ctrl Compression" type="force">
					<rb>3</rb>
					<dof>Rz</dof>
					<value lc="2">-333.62</value>
					<load_type>1</load_type>
				</rigid_constraint>
				<rigid_constraint name="Tibia Rotation Ctrl Dorsi/Plantarflexion" type="prescribe">
					<rb>3</rb>
					<dof>Rv</dof>
					<value lc="3">0.1</value>
					<relative>0</relative>
				</rigid_constraint>
			</Rigid>
			<Constraints>
			</Constraints>
		</step>
	</Step>
	<LoadData>
		<load_controller id="1" type="loadcurve">
			<interpolate>SMOOTH</interpolate>
			<points>
				<point>0,0</point>
				<point>1,1</point>
			</points>
		</load_controller>
		<load_controller id="2" type="loadcurve">
			<interpolate>LINEAR</interpolate>
			<points>
				<point>1,0</point>
				<point>2,1</point>
			</points>
		</load_controller>
		<load_controller id="3" type="loadcurve">
			<interpolate>LINEAR</interpolate>
			<points>
				<point>2,0</point>
				<point>3,-2</point>
				<point>4,0</point>
				<point>5.5,3.5</point>
				<point>7,0</point>
			</points>
		</load_controller>
	</LoadData>
	<Output>
		<plotfile type="febio">
			<var type="contact gap"/>
			<var type="displacement"/>
			<var type="relative volume"/>
			<var type="stress"/>
			<var type="effective fluid pressure"/>
			<var type="fluid flux"/>
			<var type="solid stress"/>
		</plotfile>
	</Output>
</febio_spec>
