<?xml version="1.0" encoding="ISO-8859-1"?>
<febio_spec version="3.0">
	<Module type="solid"/>
	<Control>
		<analysis>STATIC</analysis>
		<time_steps>400</time_steps>
		<step_size>0.01</step_size>
		<solver>
			<max_refs>15</max_refs>
			<max_ups>10</max_ups>
			<diverge_reform>1</diverge_reform>
			<reform_each_time_step>1</reform_each_time_step>
			<dtol>0.001</dtol>
			<etol>0.01</etol>
			<rtol>0</rtol>
			<lstol>0.9</lstol>
			<min_residual>1e-20</min_residual>
			<qnmethod>BFGS</qnmethod>
			<rhoi>0</rhoi>
		</solver>
		<time_stepper>
			<dtmin>0.005</dtmin>
			<dtmax>0.01</dtmax>
			<max_retries>6</max_retries>
			<opt_iter>10</opt_iter>
		</time_stepper>
	</Control>
	<Globals>
		<Constants>
			<T>0</T>
			<R>0</R>
			<Fc>0</Fc>
		</Constants>
	</Globals>
	<Material>
		<material id="1" name="Talar_Trochlea_Bone" type="rigid body">
			<density>1</density>
			<center_of_mass>0,0,0</center_of_mass>
		</material>
		<material id="2" name="Talar_Trochlea_Cartilage" type="EFD Mooney-Rivlin">
			<c1>1</c1>
			<c2>0</c2>
			<k>1</k>
			<beta>4.5,4.5,4.5</beta>
			<ksi>1,1,1</ksi>
		</material>
		<material id="3" name="Tibial_Plafond_Bone" type="rigid body">
			<density>1</density>
			<center_of_mass>0,0,0</center_of_mass>
		</material>
		<material id="4" name="Tibial_Plafond_Cartilage" type="EFD Mooney-Rivlin">
			<c1>1</c1>
			<c2>0</c2>
			<k>1</k>
			<beta>4.5,4.5,4.5</beta>
			<ksi>1,1,1</ksi>
		</material>
	</Material>
	<Mesh>
		<Nodes name="Talar_Trochlea">
			<node id="1">-3.53553391,5,-1.33974482e-07</node>
			<node id="2">0,5,-1.33974482e-07</node>
			<node id="3">3.53553391,5,-1.33974482e-07</node>
			<node id="4">-3.53553391,5.00000009,3.53553377</node>
			<node id="5">0,5.00000009,3.53553377</node>
			<node id="6">3.53553391,5.00000009,3.53553377</node>
			<node id="7">-3.53553391,-5,1.33974482e-07</node>
			<node id="8">0,-5,1.33974482e-07</node>
			<node id="9">3.53553391,-5,1.33974482e-07</node>
			<node id="10">-3.53553391,-4.99999991,3.53553404</node>
			<node id="11">0,-4.99999991,3.53553404</node>
			<node id="12">3.53553391,-4.99999991,3.53553404</node>
			<node id="13">10,5,-1.33974482e-07</node>
			<node id="14">7.07106781,5.00000019,7.07106768</node>
			<node id="15">0,5.00000027,9.99999987</node>
			<node id="16">-7.07106781,5.00000019,7.07106768</node>
			<node id="17">-10,5,-1.33974482e-07</node>
			<node id="18">10,-5,1.33974482e-07</node>
			<node id="19">7.07106781,-4.99999981,7.07106795</node>
			<node id="20">0,-4.99999973,10.0000001</node>
<!-- ... 1609 like lines cut -->
		</Nodes>
		<Nodes name="Tibial_Plafond">
			<node id="1630">0,4.99999995,12.9837751</node>
			<node id="1631">0,5.00000021,22.9837751</node>
			<node id="1632">0,-5.00000005,12.9837754</node>
			<node id="1633">0,-4.99999979,22.9837754</node>
			<node id="1634">18.2923315,4.99999995,13.2063202</node>
			<node id="1635">15.5563492,5.00000004,16.5401243</node>
			<node id="1636">12.2225451,5.00000011,19.2761066</node>
			<node id="1637">8.41903551,5.00000017,21.3091248</node>
			<node id="1638">4.29198708,5.0000002,22.5610513</node>
			<node id="1639">0,3.75000021,22.9837751</node>
			<node id="1640">0,2.50000021,22.9837752</node>
			<node id="1641">0,1.25000021,22.9837752</node>
			<node id="1642">0,2.13924433e-07,22.9837752</node>
			<node id="1643">0,-1.24999979,22.9837753</node>
			<node id="1644">0,-2.49999979,22.9837753</node>
			<node id="1645">0,-3.74999979,22.9837753</node>
			<node id="1646">4.29198708,-4.9999998,22.5610516</node>
			<node id="1647">8.41903551,-4.99999983,21.3091251</node>
			<node id="1648">12.2225451,-4.99999989,19.2761069</node>
			<node id="1649">15.5563492,-4.99999996,16.5401246</node>
<!-- ... 871 like lines cut -->
		</Nodes>
		<Elements type="hex8" name="Talar_Trochlea_Bone">
			<elem id="1">1,32,307,84,33,198,640,282</elem>
			<elem id="2">32,31,308,307,198,197,641,640</elem>
			<elem id="3">31,30,309,308,197,196,642,641</elem>
			<elem id="4">30,2,56,309,196,23,238,642</elem>
			<elem id="5">84,307,304,83,282,640,643,281</elem>
			<elem id="6">307,308,305,304,640,641,644,643</elem>
			<elem id="7">308,309,306,305,641,642,645,644</elem>
			<elem id="8">309,56,57,306,642,238,239,645</elem>
			<elem id="9">83,304,301,82,281,643,646,280</elem>
			<elem id="10">304,305,302,301,643,644,647,646</elem>
			<elem id="11">305,306,303,302,644,645,648,647</elem>
			<elem id="12">306,57,58,303,645,239,240,648</elem>
			<elem id="13">82,301,71,4,280,646,261,72</elem>
			<elem id="14">301,302,70,71,646,647,260,261</elem>
			<elem id="15">302,303,69,70,647,648,259,260</elem>
			<elem id="16">303,58,5,69,648,240,59,259</elem>
			<elem id="17">33,198,640,282,34,201,649,285</elem>
			<elem id="18">198,197,641,640,201,200,650,649</elem>
			<elem id="19">197,196,642,641,200,199,651,650</elem>
			<elem id="20">196,23,238,642,199,24,241,651</elem>
<!-- ... 748 like lines cut -->
		</Elements>
		<Elements type="hex8" name="Talar_Trochlea_Cartilage">
			<elem id="769">13,120,400,107,1018,1035,1087,1028</elem>
			<elem id="770">120,121,401,400,1035,1036,1088,1087</elem>
			<elem id="771">121,122,402,401,1036,1037,1089,1088</elem>
			<elem id="772">122,14,123,402,1037,1019,1038,1089</elem>
			<elem id="773">107,400,403,108,1028,1087,1090,1029</elem>
			<elem id="774">400,401,404,403,1087,1088,1091,1090</elem>
			<elem id="775">401,402,405,404,1088,1089,1092,1091</elem>
			<elem id="776">402,123,124,405,1089,1038,1039,1092</elem>
			<elem id="777">108,403,406,109,1029,1090,1093,1030</elem>
			<elem id="778">403,404,407,406,1090,1091,1094,1093</elem>
			<elem id="779">404,405,408,407,1091,1092,1095,1094</elem>
			<elem id="780">405,124,125,408,1092,1039,1040,1095</elem>
			<elem id="781">109,406,409,110,1030,1093,1096,1031</elem>
			<elem id="782">406,407,410,409,1093,1094,1097,1096</elem>
			<elem id="783">407,408,411,410,1094,1095,1098,1097</elem>
			<elem id="784">408,125,126,411,1095,1040,1041,1098</elem>
			<elem id="785">110,409,412,111,1031,1096,1099,1032</elem>
			<elem id="786">409,410,413,412,1096,1097,1100,1099</elem>
			<elem id="787">410,411,414,413,1097,1098,1101,1100</elem>
			<elem id="788">411,126,127,414,1098,1041,1042,1101</elem>
<!-- ... 492 like lines cut -->
		</Elements>
		<Elements type="hex8" name="Tibial_Plafond_Bone">
			<elem id="1281">1668,1797,1794,1667,1754,1915,1918,1753</elem>
			<elem id="1282">1797,1798,1795,1794,1915,1916,1919,1918</elem>
			<elem id="1283">1798,1799,1796,1795,1916,1917,1920,1919</elem>
			<elem id="1284">1799,1634,1635,1796,1917,1694,1695,1920</elem>
			<elem id="1285">1667,1794,1791,1666,1753,1918,1921,1752</elem>
			<elem id="1286">1794,1795,1792,1791,1918,1919,1922,1921</elem>
			<elem id="1287">1795,1796,1793,1792,1919,1920,1923,1922</elem>
			<elem id="1288">1796,1635,1636,1793,1920,1695,1696,1923</elem>
			<elem id="1289">1666,1791,1788,1665,1752,1921,1924,1751</elem>
			<elem id="1290">1791,1792,1789,1788,1921,1922,1925,1924</elem>
			<elem id="1291">1792,1793,1790,1789,1922,1923,1926,1925</elem>
			<elem id="1292">1793,1636,1637,1790,1923,1696,1697,1926</elem>
			<elem id="1293">1665,1788,1785,1664,1751,1924,1927,1750</elem>
			<elem id="1294">1788,1789,1786,1785,1924,1925,1928,1927</elem>
			<elem id="1295">1789,1790,1787,1786,1925,1926,1929,1928</elem>
			<elem id="1296">1790,1637,1638,1787,1926,1697,1698,1929</elem>
			<elem id="1297">1664,1785,1653,1630,1750,1927,1731,1654</elem>
			<elem id="1298">1785,1786,1652,1653,1927,1928,1730,1731</elem>
			<elem id="1299">1786,1787,1651,1652,1928,1929,1729,1730</elem>
			<elem id="1300">1787,1638,1631,1651,1929,1698,1639,1729</elem>
<!-- ... 300 like lines cut -->
		</Elements>
		<Elements type="hex8" name="Tibial_Plafond_Cartilage">
			<elem id="1601">1667,1668,1754,1753,2137,2138,2158,2157</elem>
			<elem id="1602">1666,1667,1753,1752,2136,2137,2157,2156</elem>
			<elem id="1603">1665,1666,1752,1751,2135,2136,2156,2155</elem>
			<elem id="1604">1664,1665,1751,1750,2134,2135,2155,2154</elem>
			<elem id="1605">1630,1664,1750,1654,2125,2134,2154,2127</elem>
			<elem id="1606">1753,1754,1759,1758,2157,2158,2163,2162</elem>
			<elem id="1607">1752,1753,1758,1757,2156,2157,2162,2161</elem>
			<elem id="1608">1751,1752,1757,1756,2155,2156,2161,2160</elem>
			<elem id="1609">1750,1751,1756,1755,2154,2155,2160,2159</elem>
			<elem id="1610">1654,1750,1755,1655,2127,2154,2159,2128</elem>
			<elem id="1611">1758,1759,1764,1763,2162,2163,2168,2167</elem>
			<elem id="1612">1757,1758,1763,1762,2161,2162,2167,2166</elem>
			<elem id="1613">1756,1757,1762,1761,2160,2161,2166,2165</elem>
			<elem id="1614">1755,1756,1761,1760,2159,2160,2165,2164</elem>
			<elem id="1615">1655,1755,1760,1656,2128,2159,2164,2129</elem>
			<elem id="1616">1763,1764,1769,1768,2167,2168,2173,2172</elem>
			<elem id="1617">1762,1763,1768,1767,2166,2167,2172,2171</elem>
			<elem id="1618">1761,1762,1767,1766,2165,2166,2171,2170</elem>
			<elem id="1619">1760,1761,1766,1765,2164,2165,2170,2169</elem>
			<elem id="1620">1656,1760,1765,1657,2129,2164,2169,2130</elem>
<!-- ... 300 like lines cut -->
		</Elements>
		<Surface name="FixedDisplacement1">
			<quad4 id="1">1667,1668,2138,2137</quad4>
			<quad4 id="2">1666,1667,2137,2136</quad4>
			<quad4 id="3">1665,1666,2136,2135</quad4>
			<quad4 id="4">1664,1665,2135,2134</quad4>
			<quad4 id="5">1630,1664,2134,2125</quad4>
			<quad4 id="6">1688,1630,2125,2148</quad4>
			<quad4 id="7">1687,1688,2148,2147</quad4>
			<quad4 id="8">1686,1687,2147,2146</quad4>
			<quad4 id="9">1685,1686,2146,2145</quad4>
			<quad4 id="10">1684,1685,2145,2144</quad4>
			<quad4 id="11">2137,2138,2237,2236</quad4>
			<quad4 id="12">2136,2137,2236,2235</quad4>
			<quad4 id="13">2135,2136,2235,2234</quad4>
			<quad4 id="14">2134,2135,2234,2233</quad4>
			<quad4 id="15">2125,2134,2233,2224</quad4>
			<quad4 id="16">2148,2125,2224,2247</quad4>
			<quad4 id="17">2147,2148,2247,2246</quad4>
			<quad4 id="18">2146,2147,2246,2245</quad4>
			<quad4 id="19">2145,2146,2245,2244</quad4>
			<quad4 id="20">2144,2145,2244,2243</quad4>
<!-- ... 60 like lines cut -->
		</Surface>
		<Surface name="FixedDisplacement2">
			<quad4 id="1">13,120,1035,1018</quad4>
			<quad4 id="2">120,121,1036,1035</quad4>
			<quad4 id="3">121,122,1037,1036</quad4>
			<quad4 id="4">122,14,1019,1037</quad4>
			<quad4 id="5">14,139,1048,1019</quad4>
			<quad4 id="6">139,140,1049,1048</quad4>
			<quad4 id="7">140,141,1050,1049</quad4>
			<quad4 id="8">141,15,1020,1050</quad4>
			<quad4 id="9">15,158,1061,1020</quad4>
			<quad4 id="10">158,159,1062,1061</quad4>
			<quad4 id="11">159,160,1063,1062</quad4>
			<quad4 id="12">160,16,1021,1063</quad4>
			<quad4 id="13">16,177,1074,1021</quad4>
			<quad4 id="14">177,178,1075,1074</quad4>
			<quad4 id="15">178,179,1076,1075</quad4>
			<quad4 id="16">179,17,1022,1076</quad4>
			<quad4 id="17">1018,1035,1188,1171</quad4>
			<quad4 id="18">1035,1036,1189,1188</quad4>
			<quad4 id="19">1036,1037,1190,1189</quad4>
			<quad4 id="20">1037,1019,1172,1190</quad4>
<!-- ... 108 like lines cut -->
		</Surface>
		<Surface name="Inter_Tibial_Plafond">
			<quad4 id="1">1667,1668,1754,1753</quad4>
			<quad4 id="2">1666,1667,1753,1752</quad4>
			<quad4 id="3">1665,1666,1752,1751</quad4>
			<quad4 id="4">1664,1665,1751,1750</quad4>
			<quad4 id="5">1630,1664,1750,1654</quad4>
			<quad4 id="6">1753,1754,1759,1758</quad4>
			<quad4 id="7">1752,1753,1758,1757</quad4>
			<quad4 id="8">1751,1752,1757,1756</quad4>
			<quad4 id="9">1750,1751,1756,1755</quad4>
			<quad4 id="10">1654,1750,1755,1655</quad4>
			<quad4 id="11">1758,1759,1764,1763</quad4>
			<quad4 id="12">1757,1758,1763,1762</quad4>
			<quad4 id="13">1756,1757,1762,1761</quad4>
			<quad4 id="14">1755,1756,1761,1760</quad4>
			<quad4 id="15">1655,1755,1760,1656</quad4>
			<quad4 id="16">1763,1764,1769,1768</quad4>
			<quad4 id="17">1762,1763,1768,1767</quad4>
			<quad4 id="18">1761,1762,1767,1766</quad4>
			<quad4 id="19">1760,1761,1766,1765</quad4>
			<quad4 id="20">1656,1760,1765,1657</quad4>
<!-- ... 60 like lines cut -->
		</Surface>
		<Surface name="Inter_Talar_Trochlea">
			<quad4 id="1">13,120,400,107</quad4>
			<quad4 id="2">120,121,401,400</quad4>
			<quad4 id="3">121,122,402,401</quad4>
			<quad4 id="4">122,14,123,402</quad4>
			<quad4 id="5">107,400,403,108</quad4>
			<quad4 id="6">400,401,404,403</quad4>
			<quad4 id="7">401,402,405,404</quad4>
			<quad4 id="8">402,123,124,405</quad4>
			<quad4 id="9">108,403,406,109</quad4>
			<quad4 id="10">403,404,407,406</quad4>
			<quad4 id="11">404,405,408,407</quad4>
			<quad4 id="12">405,124,125,408</quad4>
			<quad4 id="13">109,406,409,110</quad4>
			<quad4 id="14">406,407,410,409</quad4>
			<quad4 id="15">407,408,411,410</quad4>
			<quad4 id="16">408,125,126,411</quad4>
			<quad4 id="17">110,409,412,111</quad4>
			<quad4 id="18">409,410,413,412</quad4>
			<quad4 id="19">410,411,414,413</quad4>
			<quad4 id="20">411,126,127,414</quad4>
<!-- ... 108 like lines cut -->
		</Surface>
		<Surface name="Intra-Articular_Contact_primary">
			<quad4 id="1">1477,1494,1546,1487</quad4>
			<quad4 id="2">1494,1495,1547,1546</quad4>
			<quad4 id="3">1495,1496,1548,1547</quad4>
			<quad4 id="4">1496,1478,1497,1548</quad4>
			<quad4 id="5">1487,1546,1549,1488</quad4>
			<quad4 id="6">1546,1547,1550,1549</quad4>
			<quad4 id="7">1547,1548,1551,1550</quad4>
			<quad4 id="8">1548,1497,1498,1551</quad4>
			<quad4 id="9">1488,1549,1552,1489</quad4>
			<quad4 id="10">1549,1550,1553,1552</quad4>
			<quad4 id="11">1550,1551,1554,1553</quad4>
			<quad4 id="12">1551,1498,1499,1554</quad4>
			<quad4 id="13">1489,1552,1555,1490</quad4>
			<quad4 id="14">1552,1553,1556,1555</quad4>
			<quad4 id="15">1553,1554,1557,1556</quad4>
			<quad4 id="16">1554,1499,1500,1557</quad4>
			<quad4 id="17">1490,1555,1558,1491</quad4>
			<quad4 id="18">1555,1556,1559,1558</quad4>
			<quad4 id="19">1556,1557,1560,1559</quad4>
			<quad4 id="20">1557,1500,1501,1560</quad4>
<!-- ... 108 like lines cut -->
		</Surface>
		<Surface name="Intra-Articular_Contact_secondary">
			<quad4 id="1">2434,2435,2455,2454</quad4>
			<quad4 id="2">2433,2434,2454,2453</quad4>
			<quad4 id="3">2432,2433,2453,2452</quad4>
			<quad4 id="4">2431,2432,2452,2451</quad4>
			<quad4 id="5">2422,2431,2451,2424</quad4>
			<quad4 id="6">2454,2455,2460,2459</quad4>
			<quad4 id="7">2453,2454,2459,2458</quad4>
			<quad4 id="8">2452,2453,2458,2457</quad4>
			<quad4 id="9">2451,2452,2457,2456</quad4>
			<quad4 id="10">2424,2451,2456,2425</quad4>
			<quad4 id="11">2459,2460,2465,2464</quad4>
			<quad4 id="12">2458,2459,2464,2463</quad4>
			<quad4 id="13">2457,2458,2463,2462</quad4>
			<quad4 id="14">2456,2457,2462,2461</quad4>
			<quad4 id="15">2425,2456,2461,2426</quad4>
			<quad4 id="16">2464,2465,2470,2469</quad4>
			<quad4 id="17">2463,2464,2469,2468</quad4>
			<quad4 id="18">2462,2463,2468,2467</quad4>
			<quad4 id="19">2461,2462,2467,2466</quad4>
			<quad4 id="20">2426,2461,2466,2427</quad4>
<!-- ... 60 like lines cut -->
		</Surface>
		<Surface name="Talar_Trochlea_Surface">
			<quad4 id="1">13,120,400,107</quad4>
			<quad4 id="2">120,121,401,400</quad4>
			<quad4 id="3">121,122,402,401</quad4>
			<quad4 id="4">122,14,123,402</quad4>
			<quad4 id="5">107,400,403,108</quad4>
			<quad4 id="6">400,401,404,403</quad4>
			<quad4 id="7">401,402,405,404</quad4>
			<quad4 id="8">402,123,124,405</quad4>
			<quad4 id="9">108,403,406,109</quad4>
			<quad4 id="10">403,404,407,406</quad4>
			<quad4 id="11">404,405,408,407</quad4>
			<quad4 id="12">405,124,125,408</quad4>
			<quad4 id="13">109,406,409,110</quad4>
			<quad4 id="14">406,407,410,409</quad4>
			<quad4 id="15">407,408,411,410</quad4>
			<quad4 id="16">408,125,126,411</quad4>
			<quad4 id="17">110,409,412,111</quad4>
			<quad4 id="18">409,410,413,412</quad4>
			<quad4 id="19">410,411,414,413</quad4>
			<quad4 id="20">411,126,127,414</quad4>
<!-- ... 108 like lines cut -->
		</Surface>
		<Surface name="Tibial_Plafond_Surface">
			<quad4 id="1">1667,1668,1754,1753</quad4>
			<quad4 id="2">1666,1667,1753,1752</quad4>
			<quad4 id="3">1665,1666,1752,1751</quad4>
			<quad4 id="4">1664,1665,1751,1750</quad4>
			<quad4 id="5">1630,1664,1750,1654</quad4>
			<quad4 id="6">1753,1754,1759,1758</quad4>
			<quad4 id="7">1752,1753,1758,1757</quad4>
			<quad4 id="8">1751,1752,1757,1756</quad4>
			<quad4 id="9">1750,1751,1756,1755</quad4>
			<quad4 id="10">1654,1750,1755,1655</quad4>
			<quad4 id="11">1758,1759,1764,1763</quad4>
			<quad4 id="12">1757,1758,1763,1762</quad4>
			<quad4 id="13">1756,1757,1762,1761</quad4>
			<quad4 id="14">1755,1756,1761,1760</quad4>
			<quad4 id="15">1655,1755,1760,1656</quad4>
			<quad4 id="16">1763,1764,1769,1768</quad4>
			<quad4 id="17">1762,1763,1768,1767</quad4>
			<quad4 id="18">1761,1762,1767,1766</quad4>
			<quad4 id="19">1760,1761,1766,1765</quad4>
			<quad4 id="20">1656,1760,1765,1657</quad4>
<!-- ... 60 like lines cut -->
		</Surface>
		<SurfacePair name="Intra-Articular_Contact">
			<primary>Intra-Articular_Contact_primary</primary>
			<secondary>Intra-Articular_Contact_secondary</secondary>
		</SurfacePair>
	</Mesh>
	<MeshDomains>
		<SolidDomain name="Talar_Trochlea_Bone" mat="Talar_Trochlea_Bone"/>
		<SolidDomain name="Talar_Trochlea_Cartilage" mat="Talar_Trochlea_Cartilage"/>
		<SolidDomain name="Tibial_Plafond_Bone" mat="Tibial_Plafond_Bone"/>
		<SolidDomain name="Tibial_Plafond_Cartilage" mat="Tibial_Plafond_Cartilage"/>
	</MeshDomains>
	<Boundary>
		<bc name="FixedDisplacement1" type="fix" node_set="@surface:FixedDisplacement1">
			<dofs>x</dofs>
		</bc>
		<bc name="FixedDisplacement2" type="fix" node_set="@surface:FixedDisplacement2">
			<dofs>x</dofs>
		</bc>
		<bc name="Inter_Tibial_Plafond" type="rigid" node_set="@surface:Inter_Tibial_Plafond">
			<rb>3</rb>
		</bc>
		<bc name="Inter_Talar_Trochlea" type="rigid" node_set="@surface:Inter_Talar_Trochlea">
			<rb>1</rb>
		</bc>
	</Boundary>
	<Rigid>
		<rigid_constraint name="Talus Fixed" type="fix">
			<rb>1</rb>
			<dofs>Rx,Ry,Rz,Ru,Rv,Rw</dofs>
		</rigid_constraint>
		<rigid_constraint name="Tibia Z Compression" type="prescribe">
			<rb>3</rb>
			<dof>Rz</dof>
			<value lc="1">-2</value>
			<relative>0</relative>
		</rigid_constraint>
		<rigid_constraint name="Tibia Y Rotation" type="prescribe">
			<rb>3</rb>
			<dof>Rv</dof>
			<value lc="2">10</value>
			<relative>0</relative>
		</rigid_constraint>
		<rigid_constraint name="RigidConstraint4" type="fix">
			<rb>3</rb>
			<dofs>Ru,Rw</dofs>
		</rigid_constraint>
	</Rigid>
	<Contact>
		<contact type="sliding-elastic" name="Intra-Articular_Contact" surface_pair="Intra-Articular_Contact">
			<laugon>1</laugon>
			<tolerance>0.2</tolerance>
			<gaptol>0</gaptol>
			<penalty>10</penalty>
			<auto_penalty>1</auto_penalty>
			<two_pass>1</two_pass>
			<search_tol>0.01</search_tol>
			<symmetric_stiffness>0</symmetric_stiffness>
			<search_radius>1</search_radius>
			<seg_up>0</seg_up>
			<tension>0</tension>
			<minaug>0</minaug>
			<maxaug>10</maxaug>
			<fric_coeff>0</fric_coeff>
			<smooth_aug>0</smooth_aug>
			<node_reloc>0</node_reloc>
			<flip_primary>0</flip_primary>
			<flip_secondary>0</flip_secondary>
			<knmult>0</knmult>
			<update_penalty>0</update_penalty>
			<shell_bottom_primary>0</shell_bottom_primary>
			<shell_bottom_secondary>0</shell_bottom_secondary>
		</contact>
	</Contact>
	<LoadData>
		<load_controller id="1" type="loadcurve">
			<interpolate>SMOOTH</interpolate>
			<points>
				<point>0,0</point>
				<point>1,1</point>
			</points>
		</load_controller>
		<load_controller id="2" type="loadcurve">
			<interpolate>SMOOTH</interpolate>
			<points>
				<point>1.01,0</point>
				<point>2,1</point>
			</points>
		</load_controller>
	</LoadData>
	<Output>
		<plotfile type="febio">
			<var type="displacement"/>
			<var type="relative volume"/>
			<var type="stress"/>
		</plotfile>
	</Output>
</febio_spec>
